2024_89_CemigReconfigurationCases/1_AlimsCemig/MCLD203/MCLD203SegmentosMT.dss
new line.TR12119933 bus1=BMT148511272.3,bus2=BMT5988275B.3,Phases=1,Linecode=CAB103_3_1,Length=0.045706000,Units=km
new line.TR12119934 bus1=BMT5988275B.3,bus2=BMT5988289B.3,Phases=1,Linecode=CAB103_3_1,Length=0.061285000,Units=km
new line.TR12119935 bus1=BMT5988289B.3,bus2=BMT148511273.3,Phases=1,Linecode=CAB103_3_1,Length=0.047772000,Units=km
new line.TR12119942 bus1=BMT148511273.3,bus2=BMT8712710B.3,Phases=1,Linecode=CAB202_3_1,Length=0.096672000,Units=km
new line.TR12119943 bus1=BMT8712710B.3,bus2=BMT8712708B.3,Phases=1,Linecode=CAB202_3_1,Length=0.159089000,Units=km
new line.TR12119944 bus1=BMT8712708B.3,bus2=BMT8712706B.3,Phases=1,Linecode=CAB202_3_1,Length=0.364285000,Units=km
new line.TR12119945 bus1=BMT8712706B.3,bus2=BMT8712704B.3,Phases=1,Linecode=CAB202_3_1,Length=0.095044000,Units=km
new line.TR12119946 bus1=BMT8712704B.3,bus2=BMT8712703B.3,Phases=1,Linecode=CAB202_3_1,Length=0.101069000,Units=km
new line.TR12119947 bus1=BMT8712703B.3,bus2=BMT8712702B.3,Phases=1,Linecode=CAB202_3_1,Length=0.175088000,Units=km
new line.TR12119948 bus1=BMT8712702B.3,bus2=BMT148511274.3,Phases=1,Linecode=CAB202_3_1,Length=0.123095000,Units=km
new line.TR12122479 bus1=BMT148586214.3,bus2=BMT8715418B.3,Phases=1,Linecode=CAB202_3_1,Length=0.049529000,Units=km
new line.TR12122480 bus1=BMT8715418B.3,bus2=BMT148586218.3,Phases=1,Linecode=CAB202_3_1,Length=0.129154000,Units=km
new line.TR12123144 bus1=BMT160261437.1,bus2=BMT4353635B.1,Phases=1,Linecode=CABA06_3_1,Length=0.038337000,Units=km
new line.TR12123145 bus1=BMT4353635B.1,bus2=BMT8716011B.1,Phases=1,Linecode=CABA06_3_1,Length=0.036009000,Units=km
new line.TR12123146 bus1=BMT8716011B.1,bus2=BMT8716013B.1,Phases=1,Linecode=CABA06_3_1,Length=0.038010000,Units=km
new line.TR12123147 bus1=BMT8716013B.1,bus2=BMT8716015B.1,Phases=1,Linecode=CABA06_3_1,Length=0.038010000,Units=km
new line.TR12123148 bus1=BMT8716015B.1,bus2=BMT160261440.1,Phases=1,Linecode=CABA06_3_1,Length=0.037009000,Units=km
new line.TR12135121 bus1=BMT4990117B.2,bus2=BMT161380913.2,Phases=1,Linecode=CAB203_3_1,Length=0.079717000,Units=km
new line.TR12135122 bus1=BMT161380913.2,bus2=BMT161380914.2,Phases=1,Linecode=CAB203_3_1,Length=0.033742000,Units=km
new line.TR12135127 bus1=BMT161380913.2,bus2=BMT8728870B.2,Phases=1,Linecode=CAB103_3_1,Length=0.053163000,Units=km
new line.TR12135128 bus1=BMT8728870B.2,bus2=BMT161380915.2,Phases=1,Linecode=CAB103_3_1,Length=0.055021000,Units=km
new line.TR12135129 bus1=BMT161380915.2,bus2=BMT161380916.2,Phases=1,Linecode=CAB202_3_1,Length=0.111137000,Units=km
new line.TR12140364 bus1=BMT162131996.1,bus2=BMT162131997.1,Phases=1,Linecode=CAB103_3_1,Length=0.069911000,Units=km
new line.TR12140365 bus1=BMT162131997.1,bus2=BMT162131998.1,Phases=1,Linecode=CAB202_3_1,Length=0.113748000,Units=km
new line.TR12141022 bus1=BMT171679386.1.2.3,bus2=BMT8563386B.1.2.3,Phases=3,Linecode=CABA06_3_3,Length=0.029418000,Units=km
new line.TR12141027 bus1=BMT8563386B.1.2.3,bus2=BMT171679387.1.2.3,Phases=3,Linecode=CABA06_3_3,Length=0.037008000,Units=km
new line.TR12141030 bus1=BMT152402411.1.2.3,bus2=BMT152402412.1.2.3,Phases=3,Linecode=CABA08_3_3,Length=0.039834000,Units=km
new line.TR12142516 bus1=BMT1274314B.1.2.3,bus2=BMT8736823B.1.2.3,Phases=3,Linecode=CABA08_3_3,Length=0.016129000,Units=km
new line.TR12142523 bus1=BMT8736823B.1.2.3,bus2=BMT8736827B.1.2.3,Phases=3,Linecode=CABA08_3_3,Length=0.024193000,Units=km
new line.TR12142526 bus1=BMT1274370B.1.2.3,bus2=BMT8736829B.1.2.3,Phases=3,Linecode=CABA08_3_3,Length=0.025560000,Units=km
new line.TR12142527 bus1=BMT8736827B.1.2.3,bus2=BMT8736829B.1.2.3,Phases=3,Linecode=CABA08_3_3,Length=0.024193000,Units=km
new line.TR12142530 bus1=BMT1274370B.1.2.3,bus2=BMT8736833B.1.2.3,Phases=3,Linecode=CABA08_3_3,Length=0.024193000,Units=km
new line.TR12142533 bus1=BMT8736833B.1.2.3,bus2=BMT8736836B.1.2.3,Phases=3,Linecode=CABA08_3_3,Length=0.023329000,Units=km
new line.TR12142537 bus1=BMT8736836B.1.2.3,bus2=BMT8736837B.1.2.3,Phases=3,Linecode=CABA08_3_3,Length=0.023329000,Units=km
new line.TR12142538 bus1=BMT8736837B.1.2.3,bus2=BMT172715870.1.2.3,Phases=3,Linecode=CABA08_3_3,Length=0.024704000,Units=km
new line.TR12142543 bus1=BMT172715870.1.2.3,bus2=BMT8736841B.1.2.3,Phases=3,Linecode=CABA08_3_3,Length=0.023712000,Units=km
new line.TR12142547 bus1=BMT2111213B.1.2.3,bus2=BMT8736844B.1.2.3,Phases=3,Linecode=CABA08_3_3,Length=0.024193000,Units=km
new line.TR12142548 bus1=BMT8736841B.1.2.3,bus2=BMT8736844B.1.2.3,Phases=3,Linecode=CABA08_3_3,Length=0.024193000,Units=km
new line.TR12142555 bus1=BMT2111213B.1.2.3,bus2=BMT8736850B.1.2.3,Phases=3,Linecode=CABA08_3_3,Length=0.027792000,Units=km
new line.TR12142559 bus1=BMT8736850B.1.2.3,bus2=BMT172715871.1.2.3,Phases=3,Linecode=CABA08_3_3,Length=0.024193000,Units=km
new line.TR12142560 bus1=BMT172715871.1.2.3,bus2=BMT172715872.1.2.3,Phases=3,Linecode=CABA08_3_3,Length=0.041350000,Units=km
new line.TR12142573 bus1=BMT172715872.1.2.3,bus2=BMT8736855B.1.2.3,Phases=3,Linecode=CABA08_3_3,Length=0.039834000,Units=km
new line.TR12142574 bus1=BMT8736855B.1.2.3,bus2=BMT7986516B.1.2.3,Phases=3,Linecode=CABA08_3_3,Length=0.039455000,Units=km
new line.TR12142577 bus1=BMT7986516B.1.2.3,bus2=BMT8736857B.1.2.3,Phases=3,Linecode=CABA08_3_3,Length=0.049751000,Units=km
new line.TR12142578 bus1=BMT8736857B.1.2.3,bus2=BMT123093009.1.2.3,Phases=3,Linecode=CABA08_3_3,Length=0.050618000,Units=km
new line.TR12109621 bus1=BMT1407258B.1.2.3,bus2=BMT8702135B.1.2.3,Phases=3,Linecode=CABA08_3_3,Length=0.035236000,Units=km
new line.TR12109622 bus1=BMT1407251B.1.2.3,bus2=BMT8702135B.1.2.3,Phases=3,Linecode=CABA08_3_3,Length=0.029161000,Units=km
new line.TR12110024 bus1=BMT1407195B.1.2.3,bus2=BMT168493136.1.2.3,Phases=3,Linecode=CABA08_3_3,Length=0.014039000,Units=km
new line.TR12110025 bus1=BMT168493136.1.2.3,bus2=BMT8463615C.1.2.3,Phases=3,Linecode=CABA06_3_3,Length=0.007812000,Units=km
new line.TR12110026 bus1=BMT168493136.1.2.3,bus2=BMT1407104B.1.2.3,Phases=3,Linecode=CABA08_3_3,Length=0.012809000,Units=km
new line.TR12110513 bus1=BMT2108441B.1,bus2=BMT161438034.1,Phases=1,Linecode=CAB202_3_1,Length=0.101206000,Units=km
new line.TR12110514 bus1=BMT4960276B.1,bus2=BMT161438034.1,Phases=1,Linecode=CAB202_3_1,Length=0.089075000,Units=km
new line.TR12110522 bus1=BMT161438034.1,bus2=BMT161438036.1,Phases=1,Linecode=CAB103_3_1,Length=0.029077000,Units=km
new line.TR12113901 bus1=BMT161754433.2,bus2=BMT8706678B.2,Phases=1,Linecode=CAB202_3_1,Length=0.131276000,Units=km
new line.TR12113902 bus1=BMT8706678B.2,bus2=BMT8706680B.2,Phases=1,Linecode=CAB202_3_1,Length=0.159139000,Units=km
new line.TR12113903 bus1=BMT8706680B.2,bus2=BMT8706681B.2,Phases=1,Linecode=CAB202_3_1,Length=0.267619000,Units=km
new line.TR12113904 bus1=BMT8706681B.2,bus2=BMT8706682B.2,Phases=1,Linecode=CAB202_3_1,Length=0.147887000,Units=km
new line.TR12113905 bus1=BMT8706682B.2,bus2=BMT8706683B.2,Phases=1,Linecode=CAB202_3_1,Length=0.157581000,Units=km
new line.TR12113906 bus1=BMT8706683B.2,bus2=BMT8706684B.2,Phases=1,Linecode=CAB202_3_1,Length=0.140194000,Units=km
new line.TR12113907 bus1=BMT8706684B.2,bus2=BMT161754434.2,Phases=1,Linecode=CAB202_3_1,Length=0.178177000,Units=km
new line.TR12151854 bus1=BMT160653902.2,bus2=BMT160653904.2,Phases=1,Linecode=CAB202_3_1,Length=0.013932000,Units=km
new line.TR12151855 bus1=BMT2107251B.2,bus2=BMT160653904.2,Phases=1,Linecode=CAB202_3_1,Length=0.142895000,Units=km
new line.TR12151861 bus1=BMT160653904.2,bus2=BMT8747518B.2,Phases=1,Linecode=CAB202_3_1,Length=0.159350000,Units=km
new line.TR12151862 bus1=BMT8747518B.2,bus2=BMT160653905.2,Phases=1,Linecode=CAB202_3_1,Length=0.226858000,Units=km
new line.TR12152438 bus1=BMT8748021B.1.2.3,bus2=BMT161042810.1.2.3,Phases=3,Linecode=CAB204_3_3,Length=0.034214000,Units=km
new line.TR12152443 bus1=BMT161042808.1.2.3,bus2=BMT6062825B.1.2.3,Phases=3,Linecode=CABA06_3_3,Length=0.043115000,Units=km
new line.TR12152444 bus1=BMT6062825B.1.2.3,bus2=BMT5022954B.1.2.3,Phases=3,Linecode=CABA06_3_3,Length=0.044732000,Units=km
new line.TR12152445 bus1=BMT5022954B.1.2.3,bus2=BMT161042807.1.2.3,Phases=3,Linecode=CABA06_3_3,Length=0.039633000,Units=km
new line.TR12152446 bus1=BMT161042807.1.2.3,bus2=BMT8748018B.1.2.3,Phases=3,Linecode=CABA06_3_3,Length=0.030421000,Units=km
new line.TR12152448 bus1=BMT161042804.1,bus2=BMT161042805.1,Phases=1,Linecode=CAB103_3_1,Length=0.039214000,Units=km
new line.TR12153956 bus1=BMT159346625.1,bus2=BMT159346627.1,Phases=1,Linecode=CAB202_3_1,Length=0.182088000,Units=km
new line.TR12175976 bus1=BMT2256260B.2,bus2=BMT8774847B.2,Phases=1,Linecode=CAB103_3_1,Length=0.029418000,Units=km
new line.TR12175977 bus1=BMT160067336.2,bus2=BMT8774847B.2,Phases=1,Linecode=CAB103_3_1,Length=0.032211000,Units=km
new line.TR12175991 bus1=BMT160067336.2,bus2=BMT8774856B.2,Phases=1,Linecode=CAB103_3_1,Length=0.024419000,Units=km
new line.TR12175992 bus1=BMT2256288B.2,bus2=BMT8774856B.2,Phases=1,Linecode=CAB103_3_1,Length=0.025245000,Units=km
new line.TR12178688 bus1=BMT161042817.1.2.3,bus2=BMT123082005.1.2.3,Phases=3,Linecode=CAB202_3_3,Length=0.060744000,Units=km
new line.TR12178714 bus1=BMT161042814.1.2.3,bus2=BMT8777675B.1.2.3,Phases=3,Linecode=CAB202_3_3,Length=0.156578000,Units=km
new line.TR12178743 bus1=BMT161042810.1.2.3,bus2=BMT161042812.1.2.3,Phases=3,Linecode=CAB202_3_3,Length=0.020621000,Units=km
new line.TR12178745 bus1=BMT161042812.3,bus2=BMT161042813.3,Phases=1,Linecode=CAB103_3_1,Length=0.029740000,Units=km
new line.TR12178755 bus1=BMT161042812.1.2.3,bus2=BMT8777675B.1.2.3,Phases=3,Linecode=CAB202_3_3,Length=0.168007000,Units=km
new line.TR12178857 bus1=BMT8748021B.1.2.3,bus2=BMT161042809.1.2.3,Phases=3,Linecode=CAB204_3_3,Length=0.084223000,Units=km
new line.TR12178858 bus1=BMT161042809.1.2.3,bus2=BMT8748020B.1.2.3,Phases=3,Linecode=CAB104_3_3,Length=0.025814000,Units=km
new line.TR12178859 bus1=BMT8748020B.1.2.3,bus2=BMT8777784B.1.2.3,Phases=3,Linecode=CAB104_3_3,Length=0.039304000,Units=km
new line.TR12178860 bus1=BMT8777784B.1.2.3,bus2=BMT8777786B.1.2.3,Phases=3,Linecode=CAB104_3_3,Length=0.035237000,Units=km
new line.TR12178897 bus1=BMT8777786B.1.2.3,bus2=BMT161042808.1.2.3,Phases=3,Linecode=CAB104_3_3,Length=0.039709000,Units=km
new line.TR12179049 bus1=BMT8748018B.1.2.3,bus2=BMT8777949B.1.2.3,Phases=3,Linecode=CABA06_3_3,Length=0.032148000,Units=km
new line.TR12179050 bus1=BMT8777949B.1.2.3,bus2=BMT8777950B.1.2.3,Phases=3,Linecode=CABA06_3_3,Length=0.032148000,Units=km
new line.TR12179101 bus1=BMT8777950B.1.2.3,bus2=BMT161042806.1.2.3,Phases=3,Linecode=CABA06_3_3,Length=0.033069000,Units=km
new line.TR12179137 bus1=BMT161042806.1.2.3,bus2=BMT161042804.1.2.3,Phases=3,Linecode=CABA06_3_3,Length=0.040458000,Units=km
new line.TR12179184 bus1=BMT123081704.1.2.3,bus2=BMT8778081B.1.2.3,Phases=3,Linecode=CAB104_3_3,Length=0.048427000,Units=km
new line.TR12193939 bus1=BMT160348658.1.2.3,bus2=BMT1326821B.1.2.3,Phases=3,Linecode=CABA06_3_3,Length=0.035519000,Units=km
new line.TR12193941 bus1=BMT1326821B.1.2.3,bus2=BMT1326835B.1.2.3,Phases=3,Linecode=CABA06_3_3,Length=0.038635000,Units=km
new line.TR12193944 bus1=BMT1326835B.1.2.3,bus2=BMT160348659.1.2.3,Phases=3,Linecode=CABA06_3_3,Length=0.033384000,Units=km
new line.TR12203811 bus1=BMT4958911B.1.2.3,bus2=BMT151507334.1.2.3,Phases=3,Linecode=CAB204_3_3,Length=0.051101000,Units=km
new line.TR12203812 bus1=BMT151507335.1.2.3,bus2=BMT123082096.1.2.3,Phases=3,Linecode=CAB204_3_3,Length=0.049023000,Units=km
new line.TR12218548 bus1=BMT123084714.3,bus2=BMT160323027.3,Phases=1,Linecode=CAB202_3_1,Length=0.090780000,Units=km
new line.TR12218549 bus1=BMT160323027.3,bus2=BMT160323028.3,Phases=1,Linecode=CAB202_3_1,Length=0.077511000,Units=km
new line.TR12218561 bus1=BMT160323027.3,bus2=BMT160323029.3,Phases=1,Linecode=CAB202_3_1,Length=0.097886000,Units=km
new line.TR12218597 bus1=BMT171679387.1.2.3,bus2=BMT171679388.1.2.3,Phases=3,Linecode=CABA08_3_3,Length=0.039226000,Units=km
new line.TR12218598 bus1=BMT171679388.1.2.3,bus2=BMT152033160.1.2.3,Phases=3,Linecode=CABA08_3_3,Length=0.027520000,Units=km
new line.TR12218599 bus1=BMT152402410.1.2.3,bus2=BMT152402411.1.2.3,Phases=3,Linecode=CABA08_3_3,Length=0.021592000,Units=km
new line.TR12219096 bus1=BMT171679388.1.2.3,bus2=BMT171679359.1.2.3,Phases=3,Linecode=CABA08_3_3,Length=0.039226000,Units=km
new line.TR12219097 bus1=BMT171679360.1.2.3,bus2=BMT152389016.1.2.3,Phases=3,Linecode=CABA08_3_3,Length=0.037345000,Units=km
new line.TR12219098 bus1=BMT152398616.1.2.3,bus2=BMT152398617.1.2.3,Phases=3,Linecode=CABA08_3_3,Length=0.038635000,Units=km
new line.TR12219099 bus1=BMT152398617.1.2.3,bus2=BMT8819108B.1.2.3,Phases=3,Linecode=CABA08_3_3,Length=0.040506000,Units=km
new line.TR12219100 bus1=BMT8819108B.1.2.3,bus2=BMT8819110B.1.2.3,Phases=3,Linecode=CABA08_3_3,Length=0.023415000,Units=km
new line.TR12219101 bus1=BMT8819110B.1.2.3,bus2=BMT8819111B.1.2.3,Phases=3,Linecode=CABA08_3_3,Length=0.024357000,Units=km
new line.TR12219102 bus1=BMT8819111B.1.2.3,bus2=BMT152398618.1.2.3,Phases=3,Linecode=CABA08_3_3,Length=0.008064000,Units=km
new line.TR12219103 bus1=BMT152398618.1.2.3,bus2=BMT8819117B.1.2.3,Phases=3,Linecode=CABA08_3_3,Length=0.017468000,Units=km
new line.TR12219104 bus1=BMT8819117B.1.2.3,bus2=BMT8819119B.1.2.3,Phases=3,Linecode=CABA08_3_3,Length=0.025304000,Units=km
new line.TR12219105 bus1=BMT8819119B.1.2.3,bus2=BMT152398619.1.2.3,Phases=3,Linecode=CABA08_3_3,Length=0.008064000,Units=km
new line.TR12219106 bus1=BMT152398619.1.2.3,bus2=BMT8819122B.1.2.3,Phases=3,Linecode=CABA08_3_3,Length=0.026006000,Units=km
new line.TR12219107 bus1=BMT8819122B.1.2.3,bus2=BMT152398622.1.2.3,Phases=3,Linecode=CABA08_3_3,Length=0.027209000,Units=km
new line.TR12219108 bus1=BMT152398622.1.2.3,bus2=BMT8819124B.1.2.3,Phases=3,Linecode=CABA08_3_3,Length=0.010773000,Units=km
new line.TR12219113 bus1=BMT152398618.1.2.3,bus2=BMT152398620.1.2.3,Phases=3,Linecode=CABA06_3_3,Length=0.042164000,Units=km
new line.TR12219114 bus1=BMT152398619.1.2.3,bus2=BMT152398623.1.2.3,Phases=3,Linecode=CABA06_3_3,Length=0.043472000,Units=km
new line.TR12219115 bus1=BMT152398622.1.2.3,bus2=BMT152398624.1.2.3,Phases=3,Linecode=CABA08_3_3,Length=0.034490000,Units=km
new line.TR12219116 bus1=BMT152398618.1.2.3,bus2=BMT8819138B.1.2.3,Phases=3,Linecode=CABA06_3_3,Length=0.007073000,Units=km
new line.TR12219117 bus1=BMT8819138B.1.2.3,bus2=BMT8819139B.1.2.3,Phases=3,Linecode=CABA06_3_3,Length=0.036409000,Units=km
new line.TR12219118 bus1=BMT8819139B.1.2.3,bus2=BMT8819140B.1.2.3,Phases=3,Linecode=CABA06_3_3,Length=0.037345000,Units=km
new line.TR12219119 bus1=BMT8819140B.1.2.3,bus2=BMT8819141B.1.2.3,Phases=3,Linecode=CABA06_3_3,Length=0.037345000,Units=km
new line.TR12219120 bus1=BMT8819141B.1.2.3,bus2=BMT8819144B.1.2.3,Phases=3,Linecode=CABA06_3_3,Length=0.033846000,Units=km
new line.TR12219123 bus1=BMT152398622.1.2.3,bus2=BMT8819180B.1.2.3,Phases=3,Linecode=CABA08_3_3,Length=0.007073000,Units=km
new line.TR12219124 bus1=BMT8819180B.1.2.3,bus2=BMT8819182B.1.2.3,Phases=3,Linecode=CABA08_3_3,Length=0.037652000,Units=km
new line.TR12219125 bus1=BMT8819182B.1.2.3,bus2=BMT8819183B.1.2.3,Phases=3,Linecode=CABA08_3_3,Length=0.035476000,Units=km
new line.TR12219126 bus1=BMT8819183B.1.2.3,bus2=BMT8819177B.1.2.3,Phases=3,Linecode=CABA08_3_3,Length=0.039934000,Units=km
new line.TR12219127 bus1=BMT8819177B.1.2.3,bus2=BMT8819175B.1.2.3,Phases=3,Linecode=CABA08_3_3,Length=0.034184000,Units=km
new line.TR12219128 bus1=BMT8819175B.1.2.3,bus2=BMT152398625.1.2.3,Phases=3,Linecode=CABA08_3_3,Length=0.052823000,Units=km
new line.TR12219136 bus1=BMT152402413.1.2.3,bus2=BMT8819263B.1.2.3,Phases=3,Linecode=CABA08_3_3,Length=0.042069000,Units=km
new line.TR12219137 bus1=BMT8819263B.1.2.3,bus2=BMT8819265B.1.2.3,Phases=3,Linecode=CABA08_3_3,Length=0.034793000,Units=km
new line.TR12219138 bus1=BMT8819265B.1.2.3,bus2=BMT8819266B.1.2.3,Phases=3,Linecode=CABA08_3_3,Length=0.034793000,Units=km
new line.TR12219139 bus1=BMT8819266B.1.2.3,bus2=BMT152402414.1.2.3,Phases=3,Linecode=CABA08_3_3,Length=0.039859000,Units=km
new line.TR12219142 bus1=BMT152406468.1.2.3,bus2=BMT8819292B.1.2.3,Phases=3,Linecode=CABA08_3_3,Length=0.032901000,Units=km
new line.TR12219143 bus1=BMT8819292B.1.2.3,bus2=BMT8819293B.1.2.3,Phases=3,Linecode=CABA08_3_3,Length=0.035122000,Units=km
new line.TR12219144 bus1=BMT8819293B.1.2.3,bus2=BMT8819295B.1.2.3,Phases=3,Linecode=CABA08_3_3,Length=0.035122000,Units=km
new line.TR12219145 bus1=BMT8819295B.1.2.3,bus2=BMT152406469.1.2.3,Phases=3,Linecode=CABA08_3_3,Length=0.035122000,Units=km
new line.TR12219146 bus1=BMT152406469.1.2.3,bus2=BMT8819297B.1.2.3,Phases=3,Linecode=CABA08_3_3,Length=0.037008000,Units=km
new line.TR12219147 bus1=BMT8819297B.1.2.3,bus2=BMT8819298B.1.2.3,Phases=3,Linecode=CABA08_3_3,Length=0.040171000,Units=km
new line.TR12219148 bus1=BMT8819298B.1.2.3,bus2=BMT8819305B.1.2.3,Phases=3,Linecode=CABA08_3_3,Length=0.030090000,Units=km
new line.TR12219149 bus1=BMT8819305B.1.2.3,bus2=BMT152406470.1.2.3,Phases=3,Linecode=CABA08_3_3,Length=0.011405000,Units=km
new line.TR12219150 bus1=BMT152406470.1.2.3,bus2=BMT152406471.1.2.3,Phases=3,Linecode=CABA08_3_3,Length=0.009222000,Units=km
new line.TR12219151 bus1=BMT152406471.1.2.3,bus2=BMT8819312B.1.2.3,Phases=3,Linecode=CABA06_3_3,Length=0.034184000,Units=km
new line.TR12219152 bus1=BMT8819312B.1.2.3,bus2=BMT152406477.1.2.3,Phases=3,Linecode=CABA06_3_3,Length=0.039569000,Units=km
new line.TR12219157 bus1=BMT152406470.1.2.3,bus2=BMT8819324B.1.2.3,Phases=3,Linecode=CABA08_3_3,Length=0.031392000,Units=km
new line.TR12219158 bus1=BMT8819324B.1.2.3,bus2=BMT8819325B.1.2.3,Phases=3,Linecode=CABA08_3_3,Length=0.040506000,Units=km
new line.TR12219159 bus1=BMT8819325B.1.2.3,bus2=BMT8819326B.1.2.3,Phases=3,Linecode=CABA08_3_3,Length=0.040863000,Units=km
new line.TR12219160 bus1=BMT8819326B.1.2.3,bus2=BMT8819327B.1.2.3,Phases=3,Linecode=CABA08_3_3,Length=0.034548000,Units=km
new line.TR12219161 bus1=BMT8819327B.1.2.3,bus2=BMT8819321B.1.2.3,Phases=3,Linecode=CABA08_3_3,Length=0.033623000,Units=km
new line.TR12219162 bus1=BMT8819321B.1.2.3,bus2=BMT152406472.1.2.3,Phases=3,Linecode=CABA08_3_3,Length=0.025968000,Units=km
new line.TR12219170 bus1=BMT152406470.1.2.3,bus2=BMT152406473.1.2.3,Phases=3,Linecode=CABA08_3_3,Length=0.023265000,Units=km
new line.TR12219171 bus1=BMT152406473.1.2.3,bus2=BMT152406474.1.2.3,Phases=3,Linecode=CABA06_3_3,Length=0.028467000,Units=km
new line.TR12219172 bus1=BMT152406474.1.2.3,bus2=BMT8819338B.1.2.3,Phases=3,Linecode=CABA06_3_3,Length=0.013345000,Units=km
new line.TR12219173 bus1=BMT8819338B.1.2.3,bus2=BMT8819345B.1.2.3,Phases=3,Linecode=CABA06_3_3,Length=0.030090000,Units=km
new line.TR12219174 bus1=BMT8819345B.1.2.3,bus2=BMT152406475.1.2.3,Phases=3,Linecode=CABA06_3_3,Length=0.039226000,Units=km
new line.TR12219175 bus1=BMT152406474.1.2.3,bus2=BMT8819362B.1.2.3,Phases=3,Linecode=CABA06_3_3,Length=0.036778000,Units=km
new line.TR12219176 bus1=BMT152406474.1.2.3,bus2=BMT8819330B.1.2.3,Phases=3,Linecode=CABA06_3_3,Length=0.006710000,Units=km
new line.TR12219177 bus1=BMT8819330B.1.2.3,bus2=BMT8819331B.1.2.3,Phases=3,Linecode=CABA06_3_3,Length=0.040728000,Units=km
new line.TR12219178 bus1=BMT8819331B.1.2.3,bus2=BMT8819348B.1.2.3,Phases=3,Linecode=CABA06_3_3,Length=0.013932000,Units=km
new line.TR12219179 bus1=BMT8819348B.1.2.3,bus2=BMT8819353B.1.2.3,Phases=3,Linecode=CABA06_3_3,Length=0.037345000,Units=km
new line.TR12219180 bus1=BMT8819353B.1.2.3,bus2=BMT152406476.1.2.3,Phases=3,Linecode=CABA06_3_3,Length=0.035476000,Units=km
new line.TR12219185 bus1=BMT152402413.1.2.3,bus2=BMT152402415.1.2.3,Phases=3,Linecode=CABA08_3_3,Length=0.034213000,Units=km
new line.TR12219186 bus1=BMT152402415.1.2.3,bus2=BMT8819276B.1.2.3,Phases=3,Linecode=CABA08_3_3,Length=0.025716000,Units=km
new line.TR12219187 bus1=BMT8819276B.1.2.3,bus2=BMT152402416.1.2.3,Phases=3,Linecode=CABA08_3_3,Length=0.026577000,Units=km
new line.TR12219188 bus1=BMT152402416.1.2.3,bus2=BMT8819282B.1.2.3,Phases=3,Linecode=CABA08_3_3,Length=0.026577000,Units=km
new line.TR12219189 bus1=BMT8819282B.1.2.3,bus2=BMT8819283B.1.2.3,Phases=3,Linecode=CABA08_3_3,Length=0.026577000,Units=km
new line.TR12219190 bus1=BMT8819283B.1.2.3,bus2=BMT8819287B.1.2.3,Phases=3,Linecode=CABA08_3_3,Length=0.042389000,Units=km
new line.TR12219191 bus1=BMT8819287B.1.2.3,bus2=BMT152402418.1.2.3,Phases=3,Linecode=CABA08_3_3,Length=0.037956000,Units=km
new line.TR12219192 bus1=BMT152402416.1.2.3,bus2=BMT8819284B.1.2.3,Phases=3,Linecode=CABA06_3_3,Length=0.042389000,Units=km
new line.TR12219193 bus1=BMT8819284B.1.2.3,bus2=BMT152402419.1.2.3,Phases=3,Linecode=CABA06_3_3,Length=0.035743000,Units=km
new line.TR12219194 bus1=BMT152402415.1.2.3,bus2=BMT8819279B.1.2.3,Phases=3,Linecode=CABA06_3_3,Length=0.046184000,Units=km
new line.TR12219195 bus1=BMT8819279B.1.2.3,bus2=BMT152402417.1.2.3,Phases=3,Linecode=CABA06_3_3,Length=0.037956000,Units=km
new line.TR12219197 bus1=BMT152398619.1.2.3,bus2=BMT8819163B.1.2.3,Phases=3,Linecode=CABA06_3_3,Length=0.008064000,Units=km
new line.TR12219199 bus1=BMT8819144B.1.2.3,bus2=BMT152398621.1.2.3,Phases=3,Linecode=CABA06_3_3,Length=0.044608000,Units=km
new line.TR12221959 bus1=BMT160052571.3,bus2=BMT160052573.3,Phases=1,Linecode=CAB202_3_1,Length=0.039671000,Units=km
new line.TR12222106 bus1=BMT166263323.1.2.3,bus2=BMT1255386B.1.2.3,Phases=3,Linecode=CABA06_3_3,Length=0.006085000,Units=km
new line.TR12222107 bus1=BMT1255386B.1.2.3,bus2=BMT152160268.1.2.3,Phases=3,Linecode=CABA06_3_3,Length=0.023860000,Units=km
new line.TR12255082 bus1=BMT162294375.3,bus2=BMT8856686B.3,Phases=1,Linecode=CAB202_3_1,Length=0.089648000,Units=km
new line.TR12255083 bus1=BMT8856686B.3,bus2=BMT8856687B.3,Phases=1,Linecode=CAB202_3_1,Length=0.068464000,Units=km
new line.TR12142583 bus1=BMT123093009.1.2.3,bus2=BMT8736860B.1.2.3,Phases=3,Linecode=CABA08_3_3,Length=0.040321000,Units=km
new line.TR12142680 bus1=BMT162694044.1.2.3,bus2=BMT162694046.1.2.3,Phases=3,Linecode=CABA06_3_3,Length=0.047085000,Units=km
new line.TR12142681 bus1=BMT162694046.1.2.3,bus2=BMT162694047.1.2.3,Phases=3,Linecode=CABA06_3_3,Length=0.043184000,Units=km
new line.TR12142682 bus1=BMT162694047.1.2.3,bus2=BMT162694049.1.2.3,Phases=3,Linecode=CABA06_3_3,Length=0.044158000,Units=km
new line.TR12142685 bus1=BMT162694049.1.2.3,bus2=BMT8736905B.1.2.3,Phases=3,Linecode=CABA06_3_3,Length=0.041986000,Units=km
new line.TR12142688 bus1=BMT8736905B.1.2.3,bus2=BMT162694051.1.2.3,Phases=3,Linecode=CABA06_3_3,Length=0.041119000,Units=km
new line.TR12142689 bus1=BMT162694049.1.2.3,bus2=BMT162694052.1.2.3,Phases=3,Linecode=CABA06_3_3,Length=0.040122000,Units=km
new line.TR12142690 bus1=BMT162694047.1.2.3,bus2=BMT162694050.1.2.3,Phases=3,Linecode=CABA06_3_3,Length=0.039124000,Units=km
new line.TR12142691 bus1=BMT162694046.1.2.3,bus2=BMT162694048.1.2.3,Phases=3,Linecode=CABA06_3_3,Length=0.040059000,Units=km
new line.TR12142750 bus1=BMT7137311B.1.2.3,bus2=BMT8737064B.1.2.3,Phases=3,Linecode=CABA06_3_3,Length=0.020030000,Units=km
new line.TR12142751 bus1=BMT6984473B.1.2.3,bus2=BMT8737064B.1.2.3,Phases=3,Linecode=CABA06_3_3,Length=0.019031000,Units=km
new line.TR12229409 bus1=BMT152402411.1.2.3,bus2=BMT152402413.1.2.3,Phases=3,Linecode=CABA08_3_3,Length=0.080068000,Units=km
new line.TR12229454 bus1=BMT152402413.1.2.3,bus2=BMT152033000.1.2.3,Phases=3,Linecode=CABA08_3_3,Length=0.035476000,Units=km
new line.TR12243938 bus1=BMT4893195B.2,bus2=BMT8845550B.2,Phases=1,Linecode=CAB103_3_1,Length=0.038219000,Units=km
new line.TR12243939 bus1=BMT6365372B.2,bus2=BMT8845550B.2,Phases=1,Linecode=CAB103_3_1,Length=0.039709000,Units=km
new line.TR12248423 bus1=BMT161438035.1,bus2=BMT8849747B.1,Phases=1,Linecode=CAB202_3_1,Length=0.042450000,Units=km
new line.TR12248424 bus1=BMT2108448B.1,bus2=BMT8849747B.1,Phases=1,Linecode=CAB202_3_1,Length=0.042202000,Units=km
new line.TR12272609 bus1=BMT161764057.2,bus2=BMT8876352B.2,Phases=1,Linecode=CAB202_3_1,Length=0.136342000,Units=km
new line.TR12272610 bus1=BMT8876352B.2,bus2=BMT161764058.2,Phases=1,Linecode=CAB202_3_1,Length=0.319843000,Units=km
new line.TR12272616 bus1=BMT161764057.2,bus2=BMT8876344B.2,Phases=1,Linecode=CAB202_3_1,Length=0.043115000,Units=km
new line.TR12272617 bus1=BMT8876344B.2,bus2=BMT8876340B.2,Phases=1,Linecode=CAB202_3_1,Length=0.210063000,Units=km
new line.TR12272618 bus1=BMT8876340B.2,bus2=BMT161764059.2,Phases=1,Linecode=CAB202_3_1,Length=0.079077000,Units=km
...
