2024_89_CemigReconfigurationCases/1_AlimsCemig/MCLD203/MCLD203ChavesMT.dss
new line.CTR103046 bus1=BMT123085603.2,bus2=BMT123087591.2,Phases=1,LineCode=tieSwitch1,Length=0.001,Units=km,switch=T !numEQ 103082
new line.CTR1098 bus1=BMT123082320.1.2.3,bus2=BMT123082439.1.2.3,Phases=3,LineCode=tieSwitch,Length=0.001,Units=km,switch=T !numEQ 146912
new line.CTR116542 bus1=BMT161042801.1.2.3,bus2=BMT123081676.1.2.3,Phases=3,LineCode=tieSwitch,Length=0.001,Units=km,switch=T !numEQ 26406
open line.CTR116542 term=1
new line.CTR1168 bus1=BMT123086373.3,bus2=BMT123087150.3,Phases=1,LineCode=tieSwitch1,Length=0.001,Units=km,switch=T !numEQ 183130
new line.CTR12305 bus1=BMT123082453.1,bus2=BMT123082474.1,Phases=1,LineCode=tieSwitch1,Length=0.001,Units=km,switch=T !numEQ 146911
new line.CTR173382 bus1=BMT123082173.1.2.3,bus2=BMT167966730.1.2.3,Phases=3,LineCode=tieSwitch,Length=0.001,Units=km,switch=T !numEQ 26481
new line.CTR173494 bus1=BMT123081662.2,bus2=BMT135985497.2,Phases=1,LineCode=tieSwitch1,Length=0.001,Units=km,switch=T !numEQ 26407
new line.CTR21342 bus1=BMT123085414.1,bus2=BMT123085505.1,Phases=1,LineCode=tieSwitch1,Length=0.001,Units=km,switch=T !numEQ 181816
new line.CTR2141 bus1=BMT153698450.1.2.3,bus2=BMT123080906.1.2.3,Phases=3,LineCode=tieSwitch,Length=0.001,Units=km,switch=T !numEQ 182799
new line.CTR223873 bus1=BMT123093590.1.2.3,bus2=BMT172125737.1.2.3,Phases=3,LineCode=tieSwitch,Length=0.001,Units=km,switch=T !numEQ 27033
new line.CTR225350 bus1=BMT123089782.2,bus2=BMT123089796.2,Phases=1,LineCode=tieSwitch1,Length=0.001,Units=km,switch=T !numEQ 26408
new line.CTR225357 bus1=BMT123081704.2,bus2=BMT152311945.2,Phases=1,LineCode=tieSwitch1,Length=0.001,Units=km,switch=T !numEQ 26409
new line.CTR225371 bus1=BMT123084357.3,bus2=BMT123084784.3,Phases=1,LineCode=tieSwitch1,Length=0.001,Units=km,switch=T !numEQ 26442
new line.CTR225378 bus1=BMT123084434.3,bus2=BMT123084560.3,Phases=1,LineCode=tieSwitch1,Length=0.001,Units=km,switch=T !numEQ 26447
new line.CTR225385 bus1=BMT123084847.1,bus2=BMT167964016.1,Phases=1,LineCode=tieSwitch1,Length=0.001,Units=km,switch=T !numEQ 26451
new line.CTR225392 bus1=BMT123084868.3,bus2=BMT123088081.3,Phases=1,LineCode=tieSwitch1,Length=0.001,Units=km,switch=T !numEQ 26452
new line.CTR225399 bus1=BMT123084154.1.2.3,bus2=BMT123088375.1.2.3,Phases=3,LineCode=tieSwitch,Length=0.001,Units=km,switch=T !numEQ 26439
new line.CTR225406 bus1=BMT123088648.2,bus2=BMT123088662.2,Phases=1,LineCode=tieSwitch1,Length=0.001,Units=km,switch=T !numEQ 26435
new line.CTR225413 bus1=BMT123084077.1.2.3,bus2=BMT162916253.1.2.3,Phases=3,LineCode=tieSwitch,Length=0.001,Units=km,switch=T !numEQ 26436
new line.CTR225420 bus1=BMT123084882.1,bus2=BMT168124942.1,Phases=1,LineCode=tieSwitch1,Length=0.001,Units=km,switch=T !numEQ 26458
new line.CTR225427 bus1=BMT164585634.3,bus2=BMT170781928.3,Phases=1,LineCode=tieSwitch1,Length=0.001,Units=km,switch=T !numEQ 26443
new line.CTR225434 bus1=BMT123084441.3,bus2=BMT123084532.3,Phases=1,LineCode=tieSwitch1,Length=0.001,Units=km,switch=T !numEQ 26445
new line.CTR225441 bus1=BMT123084455.3,bus2=BMT158774276.3,Phases=1,LineCode=tieSwitch1,Length=0.001,Units=km,switch=T !numEQ 26446
new line.CTR225448 bus1=BMT123084966.1,bus2=BMT159032678.1,Phases=1,LineCode=tieSwitch1,Length=0.001,Units=km,switch=T !numEQ 26456
new line.CTR225455 bus1=BMT123084217.3,bus2=BMT123088291.3,Phases=1,LineCode=tieSwitch1,Length=0.001,Units=km,switch=T !numEQ 26448
new line.CTR225462 bus1=BMT123084273.3,bus2=BMT134768239.3,Phases=1,LineCode=tieSwitch1,Length=0.001,Units=km,switch=T !numEQ 26449
new line.CTR225469 bus1=BMT123084301.1.2.3,bus2=BMT169449676.1.2.3,Phases=3,LineCode=tieSwitch,Length=0.001,Units=km,switch=T !numEQ 26450
new line.CTR225476 bus1=BMT123088459.1,bus2=BMT123088473.1,Phases=1,LineCode=tieSwitch1,Length=0.001,Units=km,switch=T !numEQ 26444
new line.CTR225483 bus1=BMT123088207.1,bus2=BMT123088228.1,Phases=1,LineCode=tieSwitch1,Length=0.001,Units=km,switch=T !numEQ 26453
new line.CTR225490 bus1=BMT123088102.3,bus2=BMT169092977.3,Phases=1,LineCode=tieSwitch1,Length=0.001,Units=km,switch=T !numEQ 26454
new line.CTR225497 bus1=BMT123088123.3,bus2=BMT135020309.3,Phases=1,LineCode=tieSwitch1,Length=0.001,Units=km,switch=T !numEQ 26455
new line.CTR225504 bus1=BMT123085085.1,bus2=BMT123085106.1,Phases=1,LineCode=tieSwitch1,Length=0.001,Units=km,switch=T !numEQ 26457
new line.CTR225511 bus1=BMT123084126.2,bus2=BMT123088557.2,Phases=1,LineCode=tieSwitch1,Length=0.001,Units=km,switch=T !numEQ 26437
new line.CTR225518 bus1=BMT123084175.1,bus2=BMT123088347.1,Phases=1,LineCode=tieSwitch1,Length=0.001,Units=km,switch=T !numEQ 26441
new line.CTR225525 bus1=BMT123084147.2,bus2=BMT123088543.2,Phases=1,LineCode=tieSwitch1,Length=0.001,Units=km,switch=T !numEQ 26438
new line.CTR225532 bus1=BMT123085141.1,bus2=BMT123085169.1,Phases=1,LineCode=tieSwitch1,Length=0.001,Units=km,switch=T !numEQ 26459
new line.CTR225539 bus1=BMT123085260.1,bus2=BMT135021387.1,Phases=1,LineCode=tieSwitch1,Length=0.001,Units=km,switch=T !numEQ 26462
new line.CTR225546 bus1=BMT123084931.1.2.3,bus2=BMT171882902.1.2.3,Phases=3,LineCode=tieSwitch,Length=0.001,Units=km,switch=T !numEQ 26465
new line.CTR225553 bus1=BMT123085575.1,bus2=BMT138099280.1,Phases=1,LineCode=tieSwitch1,Length=0.001,Units=km,switch=T !numEQ 26466
new line.CTR225560 bus1=BMT123085638.1,bus2=BMT154710168.1,Phases=1,LineCode=tieSwitch1,Length=0.001,Units=km,switch=T !numEQ 26469
new line.CTR225574 bus1=BMT123086142.3,bus2=BMT123087353.3,Phases=1,LineCode=tieSwitch1,Length=0.001,Units=km,switch=T !numEQ 26473
new line.CTR225581 bus1=BMT123086331.3,bus2=BMT168657553.3,Phases=1,LineCode=tieSwitch1,Length=0.001,Units=km,switch=T !numEQ 26474
new line.CTR225588 bus1=BMT123086394.1.2.3,bus2=BMT123086401.1.2.3,Phases=3,LineCode=tieSwitch,Length=0.001,Units=km,switch=T !numEQ 26475
new line.CTR225595 bus1=BMT123086450.1,bus2=BMT123087010.1,Phases=1,LineCode=tieSwitch1,Length=0.001,Units=km,switch=T !numEQ 26476
new line.CTR225623 bus1=BMT123086471.1,bus2=BMT156160050.1,Phases=1,LineCode=tieSwitch1,Length=0.001,Units=km,switch=T !numEQ 26477
new line.CTR225630 bus1=BMT123086478.3,bus2=BMT123086856.3,Phases=1,LineCode=tieSwitch1,Length=0.001,Units=km,switch=T !numEQ 26478
new line.CTR225637 bus1=BMT123084903.1,bus2=BMT123085225.1,Phases=1,LineCode=tieSwitch1,Length=0.001,Units=km,switch=T !numEQ 26460
new line.CTR225644 bus1=BMT123087822.3,bus2=BMT123087962.3,Phases=1,LineCode=tieSwitch1,Length=0.001,Units=km,switch=T !numEQ 26468
new line.CTR100008 bus1=BMT123089285.2,bus2=BMT123089292.2,Phases=1,LineCode=tieSwitch1,Length=0.001,Units=km,switch=T !numEQ 106571
new line.CTR100015 bus1=BMT123089047.2,bus2=BMT123089222.2,Phases=1,LineCode=tieSwitch1,Length=0.001,Units=km,switch=T !numEQ 106573
new line.CTR100071 bus1=BMT123084028.2,bus2=BMT123084091.2,Phases=1,LineCode=tieSwitch1,Length=0.001,Units=km,switch=T !numEQ 106579
new line.CTR101485 bus1=BMT123084714.3,bus2=BMT123084749.3,Phases=1,LineCode=tieSwitch1,Length=0.001,Units=km,switch=T !numEQ 104413
new line.CTR101569 bus1=BMT172617587.1.2.3,bus2=BMT172617588.1.2.3,Phases=3,LineCode=tieSwitch,Length=0.001,Units=km,switch=T !numEQ 104442
new line.CTR1140 bus1=BMT123082761.1.2.3,bus2=BMT123082866.1.2.3,Phases=3,LineCode=tieSwitch,Length=0.001,Units=km,switch=T !numEQ 26488
new line.CTR1154 bus1=BMT123086233.1,bus2=BMT123087339.1,Phases=1,LineCode=tieSwitch1,Length=0.001,Units=km,switch=T !numEQ 183128
new line.CTR136009 bus1=BMT123082005.1,bus2=BMT123082033.1,Phases=1,LineCode=tieSwitch1,Length=0.001,Units=km,switch=T !numEQ 80457
new line.CTR136100 bus1=BMT123093863.1.2.3,bus2=BMT123093898.1.2.3,Phases=3,LineCode=tieSwitch,Length=0.001,Units=km,switch=T !numEQ 80175
new line.CTR142568 bus1=BMT123080871.1.2.3,bus2=BMT123080878.1.2.3,Phases=3,LineCode=tieSwitch,Length=0.001,Units=km,switch=T !numEQ 190230
new line.CTR16498 bus1=BMT123080010.1.2.3,bus2=BMT123080017.1.2.3,Phases=3,LineCode=tieSwitch,Length=0.001,Units=km,switch=T !numEQ 183102
new line.CTR175125 bus1=BMT123084182.3,bus2=BMT164585625.3,Phases=1,LineCode=tieSwitch1,Length=0.001,Units=km,switch=T !numEQ 26440
new line.CTR182321 bus1=BMT123079793.1.2.3,bus2=BMT164556364.1.2.3,Phases=3,LineCode=tieSwitch,Length=0.001,Units=km,switch=T !numEQ 24865
new line.CTR18283 bus1=BMT123080731.1.2.3,bus2=BMT150344634.1.2.3,Phases=3,LineCode=tieSwitch,Length=0.001,Units=km,switch=T !numEQ 182471
new line.CTR216572 bus1=BMT123081424.1.2.3,bus2=BMT156219090.1.2.3,Phases=3,LineCode=tieSwitch,Length=0.001,Units=km,switch=T !numEQ 28396
new line.CTR217468 bus1=BMT162131999.1.2.3,bus2=BMT5636728.1.2.3,Phases=3,LineCode=tieSwitch,Length=0.001,Units=km,switch=T !numEQ 28175
open line.CTR217468 term=1
new line.CTR226155 bus1=BMT123081578.1.2.3,bus2=BMT123092519.1.2.3,Phases=3,LineCode=tieSwitch,Length=0.001,Units=km,switch=T !numEQ 26327
new line.CTR226162 bus1=BMT123092267.2,bus2=BMT123092309.2,Phases=1,LineCode=tieSwitch1,Length=0.001,Units=km,switch=T !numEQ 26328
new line.CTR226169 bus1=BMT123092253.2,bus2=BMT164135207.2,Phases=1,LineCode=tieSwitch1,Length=0.001,Units=km,switch=T !numEQ 26329
new line.CTR226246 bus1=BMT123090293.2,bus2=BMT123092197.2,Phases=1,LineCode=tieSwitch1,Length=0.001,Units=km,switch=T !numEQ 26326
new line.CTR226288 bus1=BMT123091693.3,bus2=BMT123091742.3,Phases=1,LineCode=tieSwitch1,Length=0.001,Units=km,switch=T !numEQ 23628
new line.CTR226449 bus1=BMT123081606.2,bus2=BMT123092491.2,Phases=1,LineCode=tieSwitch1,Length=0.001,Units=km,switch=T !numEQ 26401
new line.CTR226484 bus1=BMT123090321.3,bus2=BMT123091315.3,Phases=1,LineCode=tieSwitch1,Length=0.001,Units=km,switch=T !numEQ 26403
new line.CTR226561 bus1=BMT123090496.2,bus2=BMT123090510.2,Phases=1,LineCode=tieSwitch1,Length=0.001,Units=km,switch=T !numEQ 26413
new line.CTR226568 bus1=BMT123089026.2,bus2=BMT123089250.2,Phases=1,LineCode=tieSwitch1,Length=0.001,Units=km,switch=T !numEQ 26414
new line.CTR226575 bus1=BMT123088851.3,bus2=BMT123088865.3,Phases=1,LineCode=tieSwitch1,Length=0.001,Units=km,switch=T !numEQ 26432
new line.CTR226582 bus1=BMT123090405.2,bus2=BMT171518981.2,Phases=1,LineCode=tieSwitch1,Length=0.001,Units=km,switch=T !numEQ 26411
new line.CTR226589 bus1=BMT123091364.3,bus2=BMT123092106.3,Phases=1,LineCode=tieSwitch1,Length=0.001,Units=km,switch=T !numEQ 26418
new line.CTR226596 bus1=BMT123091385.3,bus2=BMT123092050.3,Phases=1,LineCode=tieSwitch1,Length=0.001,Units=km,switch=T !numEQ 26419
new line.CTR226603 bus1=BMT123091399.3,bus2=BMT168029898.3,Phases=1,LineCode=tieSwitch1,Length=0.001,Units=km,switch=T !numEQ 26420
new line.CTR226610 bus1=BMT123091588.3,bus2=BMT171872355.3,Phases=1,LineCode=tieSwitch1,Length=0.001,Units=km,switch=T !numEQ 26424
new line.CTR226617 bus1=BMT123082082.1.2.3,bus2=BMT151048101.1.2.3,Phases=3,LineCode=tieSwitch,Length=0.001,Units=km,switch=T !numEQ 26427
new line.CTR226624 bus1=BMT123089068.2,bus2=BMT157903822.2,Phases=1,LineCode=tieSwitch1,Length=0.001,Units=km,switch=T !numEQ 26416
new line.CTR226638 bus1=BMT123084070.2,bus2=BMT161754512.2,Phases=1,LineCode=tieSwitch1,Length=0.001,Units=km,switch=T !numEQ 26434
new line.CTR227219 bus1=BMT123081529.3,bus2=BMT157510369.3,Phases=1,LineCode=tieSwitch1,Length=0.001,Units=km,switch=T !numEQ 266056
new line.CTR227814 bus1=BMT123079702.1.2.3,bus2=BMT123094038.1.2.3,Phases=3,LineCode=tieSwitch,Length=0.001,Units=km,switch=T !numEQ 26132
new line.CTR227821 bus1=BMT123079751.1.2.3,bus2=BMT149201300.1.2.3,Phases=3,LineCode=tieSwitch,Length=0.001,Units=km,switch=T !numEQ 26133
new line.CTR227891 bus1=BMT166447195.1,bus2=BMT166447196.1,Phases=1,LineCode=tieSwitch1,Length=0.001,Units=km,switch=T !numEQ 26146
new line.CTR228682 bus1=BMT123090713.2,bus2=BMT123090734.2,Phases=1,LineCode=tieSwitch1,Length=0.001,Units=km,switch=T !numEQ 26009
new line.CTR238671 bus1=BMT123093408.1.2.3,bus2=BMT123093443.1.2.3,Phases=3,LineCode=tieSwitch,Length=0.001,Units=km,switch=T !numEQ 23687
new line.CTR238678 bus1=BMT123093464.1.2.3,bus2=BMT123093478.1.2.3,Phases=3,LineCode=tieSwitch,Length=0.001,Units=km,switch=T !numEQ 23688
new line.CTR238685 bus1=BMT123093275.2,bus2=BMT123093331.2,Phases=1,LineCode=tieSwitch1,Length=0.001,Units=km,switch=T !numEQ 23689
new line.CTR238699 bus1=BMT123093030.1.2.3,bus2=BMT123093233.1.2.3,Phases=3,LineCode=tieSwitch,Length=0.001,Units=km,switch=T !numEQ 23692
new line.CTR23883 bus1=BMT123088683.2,bus2=BMT123088732.2,Phases=1,LineCode=tieSwitch1,Length=0.001,Units=km,switch=T !numEQ 178949
new line.CTR238867 bus1=BMT123093828.1.2.3,bus2=BMT123093912.1.2.3,Phases=3,LineCode=tieSwitch,Length=0.001,Units=km,switch=T !numEQ 23720
new line.CTR238902 bus1=BMT123093415.1.2.3,bus2=BMT123093429.1.2.3,Phases=3,LineCode=tieSwitch,Length=0.001,Units=km,switch=T !numEQ 23728
new line.CTR239490 bus1=BMT123084063.3,bus2=BMT123088795.3,Phases=1,LineCode=tieSwitch1,Length=0.001,Units=km,switch=T !numEQ 23433
new line.CTR133482 bus1=BMT123089383.1.2.3,bus2=BMT152731265.1.2.3,Phases=3,LineCode=tieSwitch,Length=0.001,Units=km,switch=T !numEQ 80978
new line.CTR133489 bus1=BMT123082243.1.2.3,bus2=BMT123082250.1.2.3,Phases=3,LineCode=tieSwitch,Length=0.001,Units=km,switch=T !numEQ 80979
new line.CTR133496 bus1=BMT123082348.2,bus2=BMT160067334.2,Phases=1,LineCode=tieSwitch1,Length=0.001,Units=km,switch=T !numEQ 80980
new line.CTR133916 bus1=BMT123081536.1.2.3,bus2=BMT167278993.1.2.3,Phases=3,LineCode=tieSwitch,Length=0.001,Units=km,switch=T !numEQ 81132
new line.CTR133923 bus1=BMT123081634.1,bus2=BMT123090216.1,Phases=1,LineCode=tieSwitch1,Length=0.001,Units=km,switch=T !numEQ 81139
new line.CTR133937 bus1=BMT123090762.2,bus2=BMT123090769.2,Phases=1,LineCode=tieSwitch1,Length=0.001,Units=km,switch=T !numEQ 81145
new line.CTR133944 bus1=BMT123087864.3,bus2=BMT123087906.3,Phases=1,LineCode=tieSwitch1,Length=0.001,Units=km,switch=T !numEQ 81153
new line.CTR133951 bus1=BMT123082677.1.2.3,bus2=BMT123082901.1.2.3,Phases=3,LineCode=tieSwitch,Length=0.001,Units=km,switch=T !numEQ 81147
new line.CTR133958 bus1=BMT123087850.3,bus2=BMT148586209.3,Phases=1,LineCode=tieSwitch1,Length=0.001,Units=km,switch=T !numEQ 81150
new line.CTR133965 bus1=BMT123087493.1,bus2=BMT123087514.1,Phases=1,LineCode=tieSwitch1,Length=0.001,Units=km,switch=T !numEQ 81156
new line.CTR133972 bus1=BMT123083902.3,bus2=BMT123088837.3,Phases=1,LineCode=tieSwitch1,Length=0.001,Units=km,switch=T !numEQ 81146
new line.CTR133979 bus1=BMT123086289.1.2.3,bus2=BMT153383082.1.2.3,Phases=3,LineCode=tieSwitch,Length=0.001,Units=km,switch=T !numEQ 81161
new line.CTR133986 bus1=BMT123087521.1,bus2=BMT123087563.1,Phases=1,LineCode=tieSwitch1,Length=0.001,Units=km,switch=T !numEQ 81160
new line.CTR134056 bus1=BMT123083629.3,bus2=BMT160512534.3,Phases=1,LineCode=tieSwitch1,Length=0.001,Units=km,switch=T !numEQ 81172
new line.CTR134084 bus1=BMT123090944.2,bus2=BMT123091007.2,Phases=1,LineCode=tieSwitch1,Length=0.001,Units=km,switch=T !numEQ 81144
new line.CTR141602 bus1=BMT123090951.2,bus2=BMT123090979.2,Phases=1,LineCode=tieSwitch1,Length=0.001,Units=km,switch=T !numEQ 15561
new line.CTR178730 bus1=BMT123085722.3,bus2=BMT171346370.3,Phases=1,LineCode=tieSwitch1,Length=0.001,Units=km,switch=T !numEQ 26471
new line.CTR178744 bus1=BMT123085708.1.2.3,bus2=BMT123086093.1.2.3,Phases=3,LineCode=tieSwitch,Length=0.001,Units=km,switch=T !numEQ 26470
new line.CTR185681 bus1=BMT123082138.3,bus2=BMT123083818.3,Phases=1,LineCode=tieSwitch1,Length=0.001,Units=km,switch=T !numEQ 26430
new line.CTR20061 bus1=BMT123090034.2,bus2=BMT170792329.2,Phases=1,LineCode=tieSwitch1,Length=0.001,Units=km,switch=T !numEQ 182347
new line.CTR209225851 bus1=BMT2209457166.1.2.3,bus2=BMT2209225852.1.2.3,Phases=3,LineCode=tieSwitch,Length=0.001,Units=km,switch=T !numEQ 
new line.CTR209225952 bus1=BMT2209225228.1.2.3,bus2=BMT2209457166.1.2.3,Phases=3,LineCode=tieSwitch,Length=0.001,Units=km,switch=T !numEQ 
new line.CTR209226572 bus1=BMT2209225852.1.2.3,bus2=BMT2209457056.1.2.3,Phases=3,LineCode=tieSwitch,Length=0.001,Units=km,switch=T !numEQ 
new line.CTR222571 bus1=BMT166263321.1.2.3,bus2=BMT166263322.1.2.3,Phases=3,LineCode=tieSwitch,Length=0.001,Units=km,switch=T !numEQ 27011
new line.CTR222627 bus1=BMT123093800.1.2.3,bus2=BMT148922116.1.2.3,Phases=3,LineCode=tieSwitch,Length=0.001,Units=km,switch=T !numEQ 27022
new line.CTR222634 bus1=BMT123080675.1.2.3,bus2=BMT150344630.1.2.3,Phases=3,LineCode=tieSwitch,Length=0.001,Units=km,switch=T !numEQ 27024
new line.CTR222662 bus1=BMT123079667.1.2.3,bus2=BMT123094108.1.2.3,Phases=3,LineCode=tieSwitch,Length=0.001,Units=km,switch=T !numEQ 27031
new line.CTR232105 bus1=BMT123093569.1.2.3,bus2=BMT149923368.1.2.3,Phases=3,LineCode=tieSwitch,Length=0.001,Units=km,switch=T !numEQ 24866
new line.CTR232273 bus1=BMT166263330.1.2.3,bus2=BMT123080969.1.2.3,Phases=3,LineCode=tieSwitch,Length=0.001,Units=km,switch=T !numEQ 24915
new line.CTR232679 bus1=BMT123080171.1.2.3,bus2=BMT150344627.1.2.3,Phases=3,LineCode=tieSwitch,Length=0.001,Units=km,switch=T !numEQ 24980
new line.CTR232693 bus1=BMT123080248.1.2.3,bus2=BMT150344613.1.2.3,Phases=3,LineCode=tieSwitch,Length=0.001,Units=km,switch=T !numEQ 24983
open line.CTR232693 term=1
new line.CTR232700 bus1=BMT149923372.1.2.3,bus2=BMT123080024.1.2.3,Phases=3,LineCode=tieSwitch,Length=0.001,Units=km,switch=T !numEQ 24984
open line.CTR232700 term=1
new line.CTR232805 bus1=BMT147531808.1.2.3,bus2=BMT160348656.1.2.3,Phases=3,LineCode=tieSwitch,Length=0.001,Units=km,switch=T !numEQ 24762
new line.CTR233302 bus1=BMT172716191.1.2.3,bus2=BMT172715873.1.2.3,Phases=3,LineCode=tieSwitch,Length=0.001,Units=km,switch=T !numEQ 314779
new line.CTR233372 bus1=BMT123079919.1.2.3,bus2=BMT123093541.1.2.3,Phases=3,LineCode=tieSwitch,Length=0.001,Units=km,switch=T !numEQ 24877
new line.CTR233386 bus1=BMT123079982.1.2.3,bus2=BMT123079989.1.2.3,Phases=3,LineCode=tieSwitch,Length=0.001,Units=km,switch=T !numEQ 24852
new line.CTR233442 bus1=BMT147525123.1.2.3,bus2=BMT172623076.1.2.3,Phases=3,LineCode=tieSwitch,Length=0.001,Units=km,switch=T !numEQ 24887
new line.CTR233554 bus1=BMT123079737.1.2.3,bus2=BMT164474443.1.2.3,Phases=3,LineCode=tieSwitch,Length=0.001,Units=km,switch=T !numEQ 24667
new line.CTR23407 bus1=BMT123087185.3,bus2=BMT123087199.3,Phases=1,LineCode=tieSwitch1,Length=0.001,Units=km,switch=T !numEQ 181340
new line.CTR234534 bus1=BMT123080066.1.2.3,bus2=BMT170209921.1.2.3,Phases=3,LineCode=tieSwitch,Length=0.001,Units=km,switch=T !numEQ 24608
new line.CTR256668 bus1=BMT123090349.2,bus2=BMT160653895.2,Phases=1,LineCode=tieSwitch1,Length=0.001,Units=km,switch=T !numEQ 23629
new line.CTR258488 bus1=BMT123086555.1.2.3,bus2=BMT172922910.1.2.3,Phases=3,LineCode=tieSwitch,Length=0.001,Units=km,switch=T !numEQ 26479
new line.CTR266293 bus1=BMT123087605.2,bus2=BMT123087626.2,Phases=1,LineCode=tieSwitch1,Length=0.001,Units=km,switch=T !numEQ 158351
new line.CTR27341 bus1=BMT123083370.3,bus2=BMT123083510.3,Phases=1,LineCode=tieSwitch1,Length=0.001,Units=km,switch=T !numEQ 178026
new line.CTR275197 bus1=BMT123081774.1.2.3,bus2=BMT170932894.1.2.3,Phases=3,LineCode=tieSwitch,Length=0.001,Units=km,switch=T !numEQ 28378
new line.CTR275204 bus1=BMT123089859.2,bus2=BMT123089957.2,Phases=1,LineCode=tieSwitch1,Length=0.001,Units=km,switch=T !numEQ 28344
new line.CTR301412 bus1=BMT123087220.3,bus2=BMT123087234.3,Phases=1,LineCode=tieSwitch1,Length=0.001,Units=km,switch=T !numEQ 215230
new line.CTR303099 bus1=BMT123089537.2,bus2=BMT168775218.2,Phases=1,LineCode=tieSwitch1,Length=0.001,Units=km,switch=T !numEQ 215638
new line.CTR225686 bus1=BMT123083601.3,bus2=BMT123083608.3,Phases=1,LineCode=tieSwitch1,Length=0.001,Units=km,switch=T !numEQ 26485
new line.CTR225693 bus1=BMT123082768.1.2.3,bus2=BMT162131995.1.2.3,Phases=3,LineCode=tieSwitch,Length=0.001,Units=km,switch=T !numEQ 26489
new line.CTR225700 bus1=BMT123082782.1.2.3,bus2=BMT123082852.1.2.3,Phases=3,LineCode=tieSwitch,Length=0.001,Units=km,switch=T !numEQ 26490
new line.CTR225707 bus1=BMT123082803.1.2.3,bus2=BMT123082824.1.2.3,Phases=3,LineCode=tieSwitch,Length=0.001,Units=km,switch=T !numEQ 26491
new line.CTR225721 bus1=BMT123081487.1.2.3,bus2=BMT123092610.1.2.3,Phases=3,LineCode=tieSwitch,Length=0.001,Units=km,switch=T !numEQ 26494
new line.CTR225728 bus1=BMT123081515.1.2.3,bus2=BMT165447173.1.2.3,Phases=3,LineCode=tieSwitch,Length=0.001,Units=km,switch=T !numEQ 26496
new line.CTR225735 bus1=BMT123092631.1.2.3,bus2=BMT123092918.1.2.3,Phases=3,LineCode=tieSwitch,Length=0.001,Units=km,switch=T !numEQ 26498
new line.CTR225742 bus1=BMT123092638.1.2.3,bus2=BMT123092904.1.2.3,Phases=3,LineCode=tieSwitch,Length=0.001,Units=km,switch=T !numEQ 26500
new line.CTR225798 bus1=BMT123083594.3,bus2=BMT123083650.3,Phases=1,LineCode=tieSwitch1,Length=0.001,Units=km,switch=T !numEQ 26486
new line.CTR225959 bus1=BMT123089768.2,bus2=BMT123090188.2,Phases=1,LineCode=tieSwitch1,Length=0.001,Units=km,switch=T !numEQ 26554
new line.CTR226120 bus1=BMT123081627.1.2.3,bus2=BMT123090251.1.2.3,Phases=3,LineCode=tieSwitch,Length=0.001,Units=km,switch=T !numEQ 26322
new line.CTR226134 bus1=BMT123084623.3,bus2=BMT123084763.3,Phases=1,LineCode=tieSwitch1,Length=0.001,Units=km,switch=T !numEQ 26324
new line.CTR235164 bus1=BMT123081004.1.2.3,bus2=BMT123080178.1.2.3,Phases=3,LineCode=tieSwitch,Length=0.001,Units=km,switch=T !numEQ 24491
open line.CTR235164 term=1
new line.CTR235234 bus1=BMT123094143.1.2.3,bus2=BMT168478334.1.2.3,Phases=3,LineCode=tieSwitch,Length=0.001,Units=km,switch=T !numEQ 301446
new line.CTR235766 bus1=BMT123080269.1.2.3,bus2=BMT150344609.1.2.3,Phases=3,LineCode=tieSwitch,Length=0.001,Units=km,switch=T !numEQ 24369
new line.CTR235927 bus1=BMT123097979.1.2.3,bus2=BMT170307132.1.2.3,Phases=3,LineCode=tieSwitch,Length=0.001,Units=km,switch=T !numEQ 239855
new line.CTR235941 bus1=BMT123097965.1.2.3,bus2=BMT164473195.1.2.3,Phases=3,LineCode=tieSwitch,Length=0.001,Units=km,switch=T !numEQ 24394
new line.CTR236186 bus1=BMT123093009.2,bus2=BMT123093254.2,Phases=1,LineCode=tieSwitch1,Length=0.001,Units=km,switch=T !numEQ 314778
new line.CTR236200 bus1=BMT123098000.1.2.3,bus2=BMT123098014.1.2.3,Phases=3,LineCode=tieSwitch,Length=0.001,Units=km,switch=T !numEQ 24439
new line.CTR236585 bus1=BMT123080276.1.2.3,bus2=BMT150344605.1.2.3,Phases=3,LineCode=tieSwitch,Length=0.001,Units=km,switch=T !numEQ 24274
new line.CTR236599 bus1=BMT123080997.1.2.3,bus2=BMT2961657.1.2.3,Phases=3,LineCode=tieSwitch,Length=0.001,Units=km,switch=T !numEQ 24276
open line.CTR236599 term=1
new line.CTR236648 bus1=BMT158844080.1.2.3,bus2=BMT6127092.1.2.3,Phases=3,LineCode=tieSwitch,Length=0.001,Units=km,switch=T !numEQ 239882
open line.CTR236648 term=1
new line.CTR236662 bus1=BMT123080290.1.2.3,bus2=BMT158844075.1.2.3,Phases=3,LineCode=tieSwitch,Length=0.001,Units=km,switch=T !numEQ 24286
new line.CTR236669 bus1=BMT123080283.1.2.3,bus2=BMT150344601.1.2.3,Phases=3,LineCode=tieSwitch,Length=0.001,Units=km,switch=T !numEQ 24287
new line.CTR236676 bus1=BMT123080213.1.2.3,bus2=BMT123080563.1.2.3,Phases=3,LineCode=tieSwitch,Length=0.001,Units=km,switch=T !numEQ 24290
new line.CTR236683 bus1=BMT123080192.1.2.3,bus2=BMT150344623.1.2.3,Phases=3,LineCode=tieSwitch,Length=0.001,Units=km,switch=T !numEQ 24291
new line.CTR236690 bus1=BMT123080164.1.2.3,bus2=BMT158963996.1.2.3,Phases=3,LineCode=tieSwitch,Length=0.001,Units=km,switch=T !numEQ 24292
new line.CTR236697 bus1=BMT123080136.1.2.3,bus2=BMT123080626.1.2.3,Phases=3,LineCode=tieSwitch,Length=0.001,Units=km,switch=T !numEQ 24293
new line.CTR236711 bus1=BMT123080129.1.2.3,bus2=BMT150344638.1.2.3,Phases=3,LineCode=tieSwitch,Length=0.001,Units=km,switch=T !numEQ 24296
new line.CTR236928 bus1=BMT123093555.1.2.3,bus2=BMT165944806.1.2.3,Phases=3,LineCode=tieSwitch,Length=0.001,Units=km,switch=T !numEQ 24342
new line.CTR237173 bus1=BMT123079912.1.2.3,bus2=BMT160648584.1.2.3,Phases=3,LineCode=tieSwitch,Length=0.001,Units=km,switch=T !numEQ 24142
new line.CTR237285 bus1=BMT123090650.2,bus2=BMT123090804.2,Phases=1,LineCode=tieSwitch1,Length=0.001,Units=km,switch=T !numEQ 26415
new line.CTR261596 bus1=BMT123084924.1,bus2=BMT123088025.1,Phases=1,LineCode=tieSwitch1,Length=0.001,Units=km,switch=T !numEQ 26463
new line.CTR267560 bus1=BMT123092330.2,bus2=BMT135029983.2,Phases=1,LineCode=tieSwitch1,Length=0.001,Units=km,switch=T !numEQ 26402
new line.CTR267581 bus1=BMT123085246.1,bus2=BMT170830202.1,Phases=1,LineCode=tieSwitch1,Length=0.001,Units=km,switch=T !numEQ 26461
new line.CTR267602 bus1=BMT123082698.1.2.3,bus2=BMT136890254.1.2.3,Phases=3,LineCode=tieSwitch,Length=0.001,Units=km,switch=T !numEQ 26487
new line.CTR28027 bus1=BMT123087157.3,bus2=BMT123087171.3,Phases=1,LineCode=tieSwitch1,Length=0.001,Units=km,switch=T !numEQ 177727
new line.CTR281119 bus1=BMT123090860.2,bus2=BMT123091049.2,Phases=1,LineCode=tieSwitch1,Length=0.001,Units=km,switch=T !numEQ 81143
new line.CTR294153 bus1=BMT164556371.1.2.3,bus2=BMT123093051.1.2.3,Phases=3,LineCode=tieSwitch,Length=0.001,Units=km,switch=T !numEQ 217874
open line.CTR294153 term=1
new line.CTR295273 bus1=BMT123090006.2,bus2=BMT159568919.2,Phases=1,LineCode=tieSwitch1,Length=0.001,Units=km,switch=T !numEQ 208537
new line.CTR32885 bus1=BMT123092827.2,bus2=BMT123092841.2,Phases=1,LineCode=tieSwitch1,Length=0.001,Units=km,switch=T !numEQ 175927
new line.CTR332261 bus1=BMT123081648.1.2.3,bus2=BMT123081809.1.2.3,Phases=3,LineCode=tieSwitch,Length=0.001,Units=km,switch=T !numEQ 225342
new line.CTR350762 bus1=BMT123091455.3,bus2=BMT168030580.3,Phases=1,LineCode=tieSwitch1,Length=0.001,Units=km,switch=T !numEQ 230711
new line.CTR364986 bus1=BMT123083433.3,bus2=BMT123083524.3,Phases=1,LineCode=tieSwitch1,Length=0.001,Units=km,switch=T !numEQ 228089
new line.CTR420062 bus1=BMT135020057.1.2.3,bus2=BMT135020071.1.2.3,Phases=3,LineCode=tieSwitch,Length=0.001,Units=km,switch=T !numEQ 129818
new line.CTR420069 bus1=BMT135020316.3,bus2=BMT135020330.3,Phases=1,LineCode=tieSwitch1,Length=0.001,Units=km,switch=T !numEQ 129825
new line.CTR420090 bus1=BMT135021408.1,bus2=BMT135021464.1,Phases=1,LineCode=tieSwitch1,Length=0.001,Units=km,switch=T !numEQ 121095
new line.CTR104460 bus1=BMT123084658.3,bus2=BMT160323022.3,Phases=1,LineCode=tieSwitch1,Length=0.001,Units=km,switch=T !numEQ 101389
new line.CTR1175 bus1=BMT123086387.1,bus2=BMT123087122.1,Phases=1,LineCode=tieSwitch1,Length=0.001,Units=km,switch=T !numEQ 183131
new line.CTR132775 bus1=BMT123086513.1,bus2=BMT171370052.1,Phases=1,LineCode=tieSwitch1,Length=0.001,Units=km,switch=T !numEQ 81168
new line.CTR133048 bus1=BMT123094066.2,bus2=BMT123094080.2,Phases=1,LineCode=tieSwitch1,Length=0.001,Units=km,switch=T !numEQ 81265
new line.CTR13964 bus1=BMT123093520.2,bus2=BMT123093527.2,Phases=1,LineCode=tieSwitch1,Length=0.001,Units=km,switch=T !numEQ 145728
new line.CTR183952 bus1=BMT123082957.1.2.3,bus2=BMT173230841.1.2.3,Phases=3,LineCode=tieSwitch,Length=0.001,Units=km,switch=T !numEQ 26484
new line.CTR240687 bus1=BMT167279001.1.2.3,bus2=BMT165590693.1.2.3,Phases=3,LineCode=tieSwitch,Length=0.001,Units=km,switch=T !numEQ 15738
new line.CTR240708 bus1=BMT123082992.3,bus2=BMT123083699.3,Phases=1,LineCode=tieSwitch1,Length=0.001,Units=km,switch=T !numEQ 15741
new line.CTR240715 bus1=BMT123083104.3,bus2=BMT123083125.3,Phases=1,LineCode=tieSwitch1,Length=0.001,Units=km,switch=T !numEQ 15742
new line.CTR240750 bus1=BMT123093870.1.2.3,bus2=BMT123093884.1.2.3,Phases=3,LineCode=tieSwitch,Length=0.001,Units=km,switch=T !numEQ 15750
new line.CTR240764 bus1=BMT123093849.1.2.3,bus2=BMT148922124.1.2.3,Phases=3,LineCode=tieSwitch,Length=0.001,Units=km,switch=T !numEQ 15755
new line.CTR24100 bus1=BMT123082299.1.2.3,bus2=BMT154549418.1.2.3,Phases=3,LineCode=tieSwitch,Length=0.001,Units=km,switch=T !numEQ 179048
new line.CTR241058 bus1=BMT123092757.2,bus2=BMT123092855.2,Phases=1,LineCode=tieSwitch1,Length=0.001,Units=km,switch=T !numEQ 15878
new line.CTR241275 bus1=BMT123090342.1.2.3,bus2=BMT123091301.1.2.3,Phases=3,LineCode=tieSwitch,Length=0.001,Units=km,switch=T !numEQ 15525
new line.CTR241394 bus1=BMT123090475.2,bus2=BMT165898223.2,Phases=1,LineCode=tieSwitch1,Length=0.001,Units=km,switch=T !numEQ 15557
new line.CTR241408 bus1=BMT123090468.2,bus2=BMT123090832.2,Phases=1,LineCode=tieSwitch1,Length=0.001,Units=km,switch=T !numEQ 15562
new line.CTR242367 bus1=BMT123082124.1.2.3,bus2=BMT169798506.1.2.3,Phases=3,LineCode=tieSwitch,Length=0.001,Units=km,switch=T !numEQ 15496
new line.CTR242955 bus1=BMT123093107.1.2.3,bus2=BMT171955151.1.2.3,Phases=3,LineCode=tieSwitch,Length=0.001,Units=km,switch=T !numEQ 254393
new line.CTR277752 bus1=BMT171882903.3,bus2=BMT123085596.3,Phases=1,LineCode=tieSwitch1,Length=0.001,Units=km,switch=T !numEQ 26467
open line.CTR277752 term=1
new line.CTR277773 bus1=BMT123091441.3,bus2=BMT123091469.3,Phases=1,LineCode=tieSwitch1,Length=0.001,Units=km,switch=T !numEQ 26421
new line.CTR277780 bus1=BMT123091504.3,bus2=BMT166545793.3,Phases=1,LineCode=tieSwitch1,Length=0.001,Units=km,switch=T !numEQ 26422
new line.CTR277787 bus1=BMT123091539.3,bus2=BMT123091931.3,Phases=1,LineCode=tieSwitch1,Length=0.001,Units=km,switch=T !numEQ 26423
new line.CTR277878 bus1=BMT123085960.3,bus2=BMT165896861.3,Phases=1,LineCode=tieSwitch1,Length=0.001,Units=km,switch=T !numEQ 26472
new line.CTR290807 bus1=BMT123090377.2,bus2=BMT164879912.2,Phases=1,LineCode=tieSwitch1,Length=0.001,Units=km,switch=T !numEQ 215528
new line.CTR290961 bus1=BMT123089264.2,bus2=BMT123089271.2,Phases=1,LineCode=tieSwitch1,Length=0.001,Units=km,switch=T !numEQ 192583
new line.CTR306466 bus1=BMT123085582.1,bus2=BMT123087675.1,Phases=1,LineCode=tieSwitch1,Length=0.001,Units=km,switch=T !numEQ 213357
new line.CTR307110 bus1=BMT123089894.2,bus2=BMT123089929.2,Phases=1,LineCode=tieSwitch1,Length=0.001,Units=km,switch=T !numEQ 207005
new line.CTR308720 bus1=BMT123085897.3,bus2=BMT172509954.3,Phases=1,LineCode=tieSwitch1,Length=0.001,Units=km,switch=T !numEQ 213356
new line.CTR360786 bus1=BMT123089684.1,bus2=BMT132112481.1,Phases=1,LineCode=tieSwitch1,Length=0.001,Units=km,switch=T !numEQ 228085
new line.CTR380701 bus1=BMT123098021.1.2.3,bus2=BMT123098028.1.2.3,Phases=3,LineCode=tieSwitch,Length=0.001,Units=km,switch=T !numEQ 291092
new line.CTR382395 bus1=BMT139521148.1.2.3,bus2=BMT164556292.1.2.3,Phases=3,LineCode=tieSwitch,Length=0.001,Units=km,switch=T !numEQ 225424
new line.CTR400805 bus1=BMT129813695.1.2.3,bus2=BMT130428897.1.2.3,Phases=3,LineCode=tieSwitch,Length=0.001,Units=km,switch=T !numEQ 298775
new line.CTR429736 bus1=BMT137876946.1.2.3,bus2=BMT162570159.1.2.3,Phases=3,LineCode=tieSwitch,Length=0.001,Units=km,switch=T !numEQ 306524
new line.CTR451485 bus1=BMT143579167.1.2.3,bus2=BMT151507333.1.2.3,Phases=3,LineCode=tieSwitch,Length=0.001,Units=km,switch=T !numEQ 314913
new line.CTR466094 bus1=BMT147655386.1.2.3,bus2=BMT163740455.1.2.3,Phases=3,LineCode=tieSwitch,Length=0.001,Units=km,switch=T !numEQ 314776
new line.CTR46871 bus1=BMT123084889.3,bus2=BMT123088039.3,Phases=1,LineCode=tieSwitch1,Length=0.001,Units=km,switch=T !numEQ 156248
new line.CTR49097 bus1=BMT123081851.1,bus2=BMT158922958.1,Phases=1,LineCode=tieSwitch1,Length=0.001,Units=km,switch=T !numEQ 26405
new line.CTR5207 bus1=BMT123090356.2,bus2=BMT123090370.2,Phases=1,LineCode=tieSwitch1,Length=0.001,Units=km,switch=T !numEQ 15559
new line.CTR59436 bus1=BMT123094157.1.2.3,bus2=BMT168493134.1.2.3,Phases=3,LineCode=tieSwitch,Length=0.001,Units=km,switch=T !numEQ 130003
new line.CTR62257 bus1=BMT123084630.3,bus2=BMT123084651.3,Phases=1,LineCode=tieSwitch1,Length=0.001,Units=km,switch=T !numEQ 129481
new line.CTR72309 bus1=BMT123081690.1,bus2=BMT132112404.1,Phases=1,LineCode=tieSwitch1,Length=0.001,Units=km,switch=T !numEQ 121474
new line.CTR79911 bus1=BMT123082089.1.2.3,bus2=BMT123082180.1.2.3,Phases=3,LineCode=tieSwitch,Length=0.001,Units=km,switch=T !numEQ 114933
new line.CTR8000 bus1=BMT168493137.1.2.3,bus2=BMT4722052.1.2.3,Phases=3,LineCode=tieSwitch,Length=0.001,Units=km,switch=T !numEQ 182968
open line.CTR8000 term=1
new line.CTR855523 bus1=BMT151507334.1.2.3,bus2=BMT151507335.1.2.3,Phases=3,LineCode=tieSwitch,Length=0.001,Units=km,switch=T !numEQ 131711
new line.CTR883976 bus1=BMT160512535.3,bus2=BMT160512537.3,Phases=1,LineCode=tieSwitch1,Length=0.001,Units=km,switch=T !numEQ 240732
new line.CTR884174 bus1=BMT160611419.1.2.3,bus2=BMT160619982.1.2.3,Phases=3,LineCode=tieSwitch,Length=0.001,Units=km,switch=T !numEQ 204178
new line.CTR889132 bus1=BMT162689155.1.2.3,bus2=BMT162689166.1.2.3,Phases=3,LineCode=tieSwitch,Length=0.001,Units=km,switch=T !numEQ 249048
new line.CTR889135 bus1=BMT162691123.1.2.3,bus2=BMT162694043.1.2.3,Phases=3,LineCode=tieSwitch,Length=0.001,Units=km,switch=T !numEQ 249047
new line.CTR240057 bus1=BMT123093639.1.2.3,bus2=BMT123093667.1.2.3,Phases=3,LineCode=tieSwitch,Length=0.001,Units=km,switch=T !numEQ 21924
new line.CTR271256 bus1=BMT123082096.2,bus2=BMT171104637.2,Phases=1,LineCode=tieSwitch1,Length=0.001,Units=km,switch=T !numEQ 26410
new line.CTR271375 bus1=BMT123080885.1.2.3,bus2=BMT123093506.1.2.3,Phases=3,LineCode=tieSwitch,Length=0.001,Units=km,switch=T !numEQ 190305
new line.CTR271382 bus1=BMT123082985.1,bus2=BMT161438027.1,Phases=1,LineCode=tieSwitch1,Length=0.001,Units=km,switch=T !numEQ 26608
new line.CTR271396 bus1=BMT123083734.1,bus2=BMT158308039.1,Phases=1,LineCode=tieSwitch1,Length=0.001,Units=km,switch=T !numEQ 26609
new line.CTR271445 bus1=BMT171104649.2,bus2=BMT123089096.2,Phases=1,LineCode=tieSwitch1,Length=0.001,Units=km,switch=T !numEQ 110379
new line.CTR271459 bus1=BMT171955144.1.2.3,bus2=BMT123093044.1.2.3,Phases=3,LineCode=tieSwitch,Length=0.001,Units=km,switch=T !numEQ 254392
new line.CTR272145 bus1=BMT123083937.1,bus2=BMT123088823.1,Phases=1,LineCode=tieSwitch1,Length=0.001,Units=km,switch=T !numEQ 178204
new line.CTR272369 bus1=BMT123085330.1,bus2=BMT158029896.1,Phases=1,LineCode=tieSwitch1,Length=0.001,Units=km,switch=T !numEQ 15739
new line.CTR284283 bus1=BMT123079870.1.2.3,bus2=BMT172622017.1.2.3,Phases=3,LineCode=tieSwitch,Length=0.001,Units=km,switch=T !numEQ 190210
new line.CTR284304 bus1=BMT172621829.1.2.3,bus2=BMT6125342.1.2.3,Phases=3,LineCode=tieSwitch,Length=0.001,Units=km,switch=T !numEQ 190209
open line.CTR284304 term=1
new line.CTR284402 bus1=BMT160648589.1.2.3,bus2=BMT139850162.1.2.3,Phases=3,LineCode=tieSwitch,Length=0.001,Units=km,switch=T !numEQ 132570
new line.CTR284430 bus1=BMT160648221.1.2.3,bus2=BMT139838423.1.2.3,Phases=3,LineCode=tieSwitch,Length=0.001,Units=km,switch=T !numEQ 187761
open line.CTR284430 term=1
new line.CTR296554 bus1=BMT123081445.1.2.3,bus2=BMT123081452.1.2.3,Phases=3,LineCode=tieSwitch,Length=0.001,Units=km,switch=T !numEQ 215556
new line.CTR31513 bus1=BMT123089663.1,bus2=BMT132112453.1,Phases=1,LineCode=tieSwitch1,Length=0.001,Units=km,switch=T !numEQ 176628
new line.CTR315986 bus1=BMT123090097.2,bus2=BMT152895847.2,Phases=1,LineCode=tieSwitch1,Length=0.001,Units=km,switch=T !numEQ 208473
new line.CTR3177 bus1=BMT153383090.2,bus2=BMT153383094.2,Phases=1,LineCode=tieSwitch1,Length=0.001,Units=km,switch=T !numEQ 183129
new line.CTR332947 bus1=BMT123092162.3,bus2=BMT123092169.3,Phases=1,LineCode=tieSwitch1,Length=0.001,Units=km,switch=T !numEQ 230717
new line.CTR3331 bus1=BMT123086247.1.2.3,bus2=BMT123086268.1.2.3,Phases=3,LineCode=tieSwitch,Length=0.001,Units=km,switch=T !numEQ 132487
new line.CTR333220 bus1=BMT123091245.2,bus2=BMT123091252.2,Phases=1,LineCode=tieSwitch1,Length=0.001,Units=km,switch=T !numEQ 230718
new line.CTR369921 bus1=BMT123088501.1,bus2=BMT123088515.1,Phases=1,LineCode=tieSwitch1,Length=0.001,Units=km,switch=T !numEQ 230979
new line.CTR407763 bus1=BMT132433599.3,bus2=BMT132435013.3,Phases=1,LineCode=tieSwitch1,Length=0.001,Units=km,switch=T !numEQ 298850
new line.CTR42678 bus1=BMT123086940.1,bus2=BMT123086954.1,Phases=1,LineCode=tieSwitch1,Length=0.001,Units=km,switch=T !numEQ 157235
new line.CTR437912 bus1=BMT157899196.1.2.3,bus2=BMT170307276.1.2.3,Phases=3,LineCode=tieSwitch,Length=0.001,Units=km,switch=T !numEQ 311237
new line.CTR46045 bus1=BMT123087920.3,bus2=BMT160052570.3,Phases=1,LineCode=tieSwitch1,Length=0.001,Units=km,switch=T !numEQ 156448
new line.CTR47816 bus1=BMT123081760.3,bus2=BMT159301356.3,Phases=1,LineCode=tieSwitch1,Length=0.001,Units=km,switch=T !numEQ 156131
new line.CTR47823 bus1=BMT123092421.2,bus2=BMT123092449.2,Phases=1,LineCode=tieSwitch1,Length=0.001,Units=km,switch=T !numEQ 156132
new line.CTR5585 bus1=BMT123090258.1.2.3,bus2=BMT123090265.1.2.3,Phases=3,LineCode=tieSwitch,Length=0.001,Units=km,switch=T !numEQ 123444
new line.CTR60906 bus1=BMT123080241.1.2.3,bus2=BMT150344618.1.2.3,Phases=3,LineCode=tieSwitch,Length=0.001,Units=km,switch=T !numEQ 129515
new line.CTR66240 bus1=BMT123083027.1,bus2=BMT123083678.1,Phases=1,LineCode=tieSwitch1,Length=0.001,Units=km,switch=T !numEQ 123810
new line.CTR68361 bus1=BMT123082908.1.2.3,bus2=BMT123082915.1.2.3,Phases=3,LineCode=tieSwitch,Length=0.001,Units=km,switch=T !numEQ 123446
new line.CTR68921 bus1=BMT123080143.1.2.3,bus2=BMT123080640.1.2.3,Phases=3,LineCode=tieSwitch,Length=0.001,Units=km,switch=T !numEQ 123327
new line.CTR776 bus1=BMT123089852.2,bus2=BMT123089901.2,Phases=1,LineCode=tieSwitch1,Length=0.001,Units=km,switch=T !numEQ 187625
new line.CTR85021 bus1=BMT123083188.3,bus2=BMT123083573.3,Phases=1,LineCode=tieSwitch1,Length=0.001,Units=km,switch=T !numEQ 23180
new line.CTR85721 bus1=BMT123080220.1.2.3,bus2=BMT123080227.1.2.3,Phases=3,LineCode=tieSwitch,Length=0.001,Units=km,switch=T !numEQ 280486
new line.CTR857322 bus1=BMT152033000.1.2.3,bus2=BMT152406468.1.2.3,Phases=3,LineCode=tieSwitch,Length=0.001,Units=km,switch=T !numEQ 179673
new line.CTR857324 bus1=BMT152033160.1.2.3,bus2=BMT152402410.1.2.3,Phases=3,LineCode=tieSwitch,Length=0.001,Units=km,switch=T !numEQ 317382
new line.CTR858513 bus1=BMT152389016.1.2.3,bus2=BMT152398616.1.2.3,Phases=3,LineCode=tieSwitch,Length=0.001,Units=km,switch=T !numEQ 317385
new line.CTR864685 bus1=BMT154132095.1.2.3,bus2=BMT159507259.1.2.3,Phases=3,LineCode=tieSwitch,Length=0.001,Units=km,switch=T !numEQ 236405
new line.CTR871563 bus1=BMT156160053.1,bus2=BMT156160056.1,Phases=1,LineCode=tieSwitch1,Length=0.001,Units=km,switch=T !numEQ 247329
new line.CTR879660 bus1=BMT158774284.3,bus2=BMT169298591.3,Phases=1,LineCode=tieSwitch1,Length=0.001,Units=km,switch=T !numEQ 248703
new line.CTR887410 bus1=BMT161886962.3,bus2=BMT161887250.3,Phases=1,LineCode=tieSwitch1,Length=0.001,Units=km,switch=T !numEQ 132258
new line.CTR892616 bus1=BMT164128163.2,bus2=BMT164772292.2,Phases=1,LineCode=tieSwitch1,Length=0.001,Units=km,switch=T !numEQ 249576
new line.CTR898723 bus1=BMT166285097.2,bus2=BMT166285908.2,Phases=1,LineCode=tieSwitch1,Length=0.001,Units=km,switch=T !numEQ 265066
new line.CTR899589 bus1=BMT166545802.3,bus2=BMT166549507.3,Phases=1,LineCode=tieSwitch1,Length=0.001,Units=km,switch=T !numEQ 256721
new line.CTR907093 bus1=BMT169092978.3,bus2=BMT169093202.3,Phases=1,LineCode=tieSwitch1,Length=0.001,Units=km,switch=T !numEQ 295530
new line.CTR907268 bus1=BMT169165091.3,bus2=BMT169165092.3,Phases=1,LineCode=tieSwitch1,Length=0.001,Units=km,switch=T !numEQ 373900
new line.CTR90768 bus1=BMT123089131.2,bus2=BMT123089145.2,Phases=1,LineCode=tieSwitch1,Length=0.001,Units=km,switch=T !numEQ 26417
new line.CTR420104 bus1=BMT135030039.2,bus2=BMT135030116.2,Phases=1,LineCode=tieSwitch1,Length=0.001,Units=km,switch=T !numEQ 129826
new line.CTR420118 bus1=BMT135035226.3,bus2=BMT135035282.3,Phases=1,LineCode=tieSwitch1,Length=0.001,Units=km,switch=T !numEQ 129828
new line.CTR420132 bus1=BMT135037865.3,bus2=BMT161886959.3,Phases=1,LineCode=tieSwitch1,Length=0.001,Units=km,switch=T !numEQ 129829
new line.CTR420174 bus1=BMT135044431.3,bus2=BMT135044438.3,Phases=1,LineCode=tieSwitch1,Length=0.001,Units=km,switch=T !numEQ 129832
new line.CTR421189 bus1=BMT135223414.1,bus2=BMT135223512.1,Phases=1,LineCode=tieSwitch1,Length=0.001,Units=km,switch=T !numEQ 221244
new line.CTR42230 bus1=BMT123083321.3,bus2=BMT123083545.3,Phases=1,LineCode=tieSwitch1,Length=0.001,Units=km,switch=T !numEQ 157411
new line.CTR48677 bus1=BMT123082215.2,bus2=BMT123082530.2,Phases=1,LineCode=tieSwitch1,Length=0.001,Units=km,switch=T !numEQ 146910
new line.CTR48691 bus1=BMT151048108.1.2.3,bus2=BMT123082306.1.2.3,Phases=3,LineCode=tieSwitch,Length=0.001,Units=km,switch=T !numEQ 146913
open line.CTR48691 term=1
new line.CTR51407 bus1=BMT123088886.3,bus2=BMT123088949.3,Phases=1,LineCode=tieSwitch1,Length=0.001,Units=km,switch=T !numEQ 156757
new line.CTR59037 bus1=BMT123088424.1,bus2=BMT123088445.1,Phases=1,LineCode=tieSwitch1,Length=0.001,Units=km,switch=T !numEQ 129890
new line.CTR59065 bus1=BMT123080255.1.2.3,bus2=BMT123080472.1.2.3,Phases=3,LineCode=tieSwitch,Length=0.001,Units=km,switch=T !numEQ 129894
new line.CTR69194 bus1=BMT123093282.2,bus2=BMT123093303.2,Phases=1,LineCode=tieSwitch1,Length=0.001,Units=km,switch=T !numEQ 123147
new line.CTR73009 bus1=BMT123087983.3,bus2=BMT123087997.3,Phases=1,LineCode=tieSwitch1,Length=0.001,Units=km,switch=T !numEQ 121357
new line.CTR77174 bus1=BMT154832205.1.2.3,bus2=BMT157539630.1.2.3,Phases=3,LineCode=tieSwitch,Length=0.001,Units=km,switch=T !numEQ 26502
new line.CTR84615 bus1=BMT123093730.1.2.3,bus2=BMT172129847.1.2.3,Phases=3,LineCode=tieSwitch,Length=0.001,Units=km,switch=T !numEQ 111673
new line.CTR847011 bus1=BMT149018273.2,bus2=BMT161380912.2,Phases=1,LineCode=tieSwitch1,Length=0.001,Units=km,switch=T !numEQ 301029
new line.CTR861771 bus1=BMT153234313.3,bus2=BMT162294375.3,Phases=1,LineCode=tieSwitch1,Length=0.001,Units=km,switch=T !numEQ 385339
new line.CTR874489 bus1=BMT170209928.1.2.3,bus2=BMT170209931.1.2.3,Phases=3,LineCode=tieSwitch,Length=0.001,Units=km,switch=T !numEQ 242562
new line.CTR876045 bus1=BMT157532271.3,bus2=BMT157532289.3,Phases=1,LineCode=tieSwitch1,Length=0.001,Units=km,switch=T !numEQ 243965
new line.CTR881319 bus1=BMT162124955.1.2.3,bus2=BMT159393226.1.2.3,Phases=3,LineCode=tieSwitch,Length=0.001,Units=km,switch=T !numEQ 237065
open line.CTR881319 term=1
new line.CTR904023 bus1=BMT167961737.3,bus2=BMT167962700.3,Phases=1,LineCode=tieSwitch1,Length=0.001,Units=km,switch=T !numEQ 287003
new line.CTR904508 bus1=BMT168124958.1,bus2=BMT168125038.1,Phases=1,LineCode=tieSwitch1,Length=0.001,Units=km,switch=T !numEQ 242454
new line.CTR914887 bus1=BMT171679359.1.2.3,bus2=BMT171679360.1.2.3,Phases=3,LineCode=tieSwitch,Length=0.001,Units=km,switch=T !numEQ 254391
new line.CTR915574 bus1=BMT171882782.1.2.3,bus2=BMT171882912.1.2.3,Phases=3,LineCode=tieSwitch,Length=0.001,Units=km,switch=T !numEQ 324240
new line.CTR920024 bus1=BMT173230844.2,bus2=BMT173232517.2,Phases=1,LineCode=tieSwitch1,Length=0.001,Units=km,switch=T !numEQ 326195
new line.CTR96067 bus1=BMT123080038.1.2.3,bus2=BMT150344643.1.2.3,Phases=3,LineCode=tieSwitch,Length=0.001,Units=km,switch=T !numEQ 108216
new line.CTRR19228 bus1=BMT135985504.2,bus2=BMT135985511.2,Phases=1,LineCode=tieSwitch1,Length=0.001,Units=km,switch=T !numEQ 306587
new Recloser.R19228 monitoredobj='line.CTRR19228' monitoredterm=1,numfast=1,phasedelayed='VERY_INV',grounddelayed='VERY_INV',phasetrip=280,TDPhDelayed=1,GroundTrip=45,TDGrDelayed=14,shots=1,recloseintervals=(10, 20, 20)
new line.CTRR19417 bus1=BMT136161351.1,bus2=BMT138098839.1,Phases=1,LineCode=tieSwitch1,Length=0.001,Units=km,switch=T !numEQ 306588
new Recloser.R19417 monitoredobj='line.CTRR19417' monitoredterm=1,numfast=1,phasedelayed='VERY_INV',grounddelayed='VERY_INV',phasetrip=280,TDPhDelayed=1,GroundTrip=45,TDGrDelayed=14,shots=1,recloseintervals=(10, 20, 20)
new line.CTRR31111 bus1=BMT123093079.1.2.3,bus2=BMT168239142.1.2.3,Phases=3,LineCode=tieSwitch,Length=0.001,Units=km,switch=T !numEQ 298780
new Recloser.R31111 monitoredobj='line.CTRR31111' monitoredterm=1,numfast=1,phasedelayed='VERY_INV',grounddelayed='VERY_INV',phasetrip=280,TDPhDelayed=1,GroundTrip=45,TDGrDelayed=14,shots=1,recloseintervals=(10, 20, 20)
new line.CTRR31223 bus1=BMT123082110.1.2.3,bus2=BMT160611414.1.2.3,Phases=3,LineCode=tieSwitch,Length=0.001,Units=km,switch=T !numEQ 26428
new Recloser.R31223 monitoredobj='line.CTRR31223' monitoredterm=1,numfast=1,phasedelayed='VERY_INV',grounddelayed='VERY_INV',phasetrip=280,TDPhDelayed=1,GroundTrip=45,TDGrDelayed=14,shots=1,recloseintervals=(10, 20, 20)
new line.CTRR36429 bus1=BMT164474053.1.2.3,bus2=BMT170307128.1.2.3,Phases=3,LineCode=tieSwitch,Length=0.001,Units=km,switch=T !numEQ 206882
new Recloser.R36429 monitoredobj='line.CTRR36429' monitoredterm=1,numfast=1,phasedelayed='VERY_INV',grounddelayed='VERY_INV',phasetrip=280,TDPhDelayed=1,GroundTrip=45,TDGrDelayed=14,shots=1,recloseintervals=(10, 20, 20)
new line.CTRR3891 bus1=BMT123081501.1.2.3,bus2=BMT123081508.1.2.3,Phases=3,LineCode=tieSwitch,Length=0.001,Units=km,switch=T !numEQ 26495
new Recloser.R3891 monitoredobj='line.CTRR3891' monitoredterm=1,numfast=1,phasedelayed='VERY_INV',grounddelayed='VERY_INV',phasetrip=280,TDPhDelayed=1,GroundTrip=45,TDGrDelayed=14,shots=1,recloseintervals=(10, 20, 20)
new line.CTRR39370 bus1=BMT165931067.1.2.3,bus2=BMT165931073.1.2.3,Phases=3,LineCode=tieSwitch,Length=0.001,Units=km,switch=T !numEQ 248896
new Recloser.R39370 monitoredobj='line.CTRR39370' monitoredterm=1,numfast=1,phasedelayed='VERY_INV',grounddelayed='VERY_INV',phasetrip=280,TDPhDelayed=1,GroundTrip=45,TDGrDelayed=14,shots=1,recloseintervals=(10, 20, 20)
new line.CTRR39377 bus1=BMT165931615.1.2.3,bus2=BMT165931626.1.2.3,Phases=3,LineCode=tieSwitch,Length=0.001,Units=km,switch=T !numEQ 237184
new Recloser.R39377 monitoredobj='line.CTRR39377' monitoredterm=1,numfast=1,phasedelayed='VERY_INV',grounddelayed='VERY_INV',phasetrip=280,TDPhDelayed=1,GroundTrip=45,TDGrDelayed=14,shots=1,recloseintervals=(10, 20, 20)
new line.CTRR41685 bus1=BMT170209902.1.2.3,bus2=BMT171558112.1.2.3,Phases=3,LineCode=tieSwitch,Length=0.001,Units=km,switch=T !numEQ 242561
new Recloser.R41685 monitoredobj='line.CTRR41685' monitoredterm=1,numfast=1,phasedelayed='VERY_INV',grounddelayed='VERY_INV',phasetrip=280,TDPhDelayed=1,GroundTrip=45,TDGrDelayed=14,shots=1,recloseintervals=(10, 20, 20)
new line.CTRR42175 bus1=BMT170931014.1.2.3,bus2=BMT170931720.1.2.3,Phases=3,LineCode=tieSwitch,Length=0.001,Units=km,switch=T !numEQ 275580
new Recloser.R42175 monitoredobj='line.CTRR42175' monitoredterm=1,numfast=1,phasedelayed='VERY_INV',grounddelayed='VERY_INV',phasetrip=280,TDPhDelayed=1,GroundTrip=45,TDGrDelayed=14,shots=1,recloseintervals=(10, 20, 20)
new line.CTRR42177 bus1=BMT170932897.1.2.3,bus2=BMT171548342.1.2.3,Phases=3,LineCode=tieSwitch,Length=0.001,Units=km,switch=T !numEQ 279322
new Recloser.R42177 monitoredobj='line.CTRR42177' monitoredterm=1,numfast=1,phasedelayed='VERY_INV',grounddelayed='VERY_INV',phasetrip=280,TDPhDelayed=1,GroundTrip=45,TDGrDelayed=14,shots=1,recloseintervals=(10, 20, 20)
new line.CTRR42340 bus1=BMT172618989.1.2.3,bus2=BMT171260089.1.2.3,Phases=3,LineCode=tieSwitch,Length=0.001,Units=km,switch=T !numEQ 253090
new Recloser.R42340 monitoredobj='line.CTRR42340' monitoredterm=1,numfast=1,phasedelayed='VERY_INV',grounddelayed='VERY_INV',phasetrip=280,TDPhDelayed=1,GroundTrip=45,TDGrDelayed=14,shots=1,recloseintervals=(10, 20, 20)
new line.CTRR4682 bus1=BMT123080843.1.2.3,bus2=BMT123080864.1.2.3,Phases=3,LineCode=tieSwitch,Length=0.001,Units=km,switch=T !numEQ 191196
new Recloser.R4682 monitoredobj='line.CTRR4682' monitoredterm=1,numfast=1,phasedelayed='VERY_INV',grounddelayed='VERY_INV',phasetrip=280,TDPhDelayed=1,GroundTrip=45,TDGrDelayed=14,shots=1,recloseintervals=(10, 20, 20)
new line.CTRR5144 bus1=BMT123080122.1.2.3,bus2=BMT123080724.1.2.3,Phases=3,LineCode=tieSwitch,Length=0.001,Units=km,switch=T !numEQ 182470
new Recloser.R5144 monitoredobj='line.CTRR5144' monitoredterm=1,numfast=1,phasedelayed='VERY_INV',grounddelayed='VERY_INV',phasetrip=280,TDPhDelayed=1,GroundTrip=45,TDGrDelayed=14,shots=1,recloseintervals=(10, 20, 20)
new line.CTR35573 bus1=BMT123088620.2,bus2=BMT123088760.2,Phases=1,LineCode=tieSwitch1,Length=0.001,Units=km,switch=T !numEQ 159066
new line.CTR35580 bus1=BMT123088690.2,bus2=BMT161764056.2,Phases=1,LineCode=tieSwitch1,Length=0.001,Units=km,switch=T !numEQ 159067
new line.CTR41278 bus1=BMT123087857.3,bus2=BMT123087948.3,Phases=1,LineCode=tieSwitch1,Length=0.001,Units=km,switch=T !numEQ 157572
new line.CTR435392 bus1=BMT139525789.1.2.3,bus2=BMT163507716.1.2.3,Phases=3,LineCode=tieSwitch,Length=0.001,Units=km,switch=T !numEQ 310318
new line.CTR452556 bus1=BMT143888791.1.2.3,bus2=BMT171679373.1.2.3,Phases=3,LineCode=tieSwitch,Length=0.001,Units=km,switch=T !numEQ 298781
new line.CTR455447 bus1=BMT144605255.1,bus2=BMT160214558.1,Phases=1,LineCode=tieSwitch1,Length=0.001,Units=km,switch=T !numEQ 307530
new line.CTR47522 bus1=BMT123082446.3,bus2=BMT123082488.3,Phases=1,LineCode=tieSwitch1,Length=0.001,Units=km,switch=T !numEQ 156035
new line.CTR47529 bus1=BMT154549174.1,bus2=BMT160261428.1,Phases=1,LineCode=tieSwitch1,Length=0.001,Units=km,switch=T !numEQ 156036
new line.CTR55376 bus1=BMT123092673.2,bus2=BMT166285079.2,Phases=1,LineCode=tieSwitch1,Length=0.001,Units=km,switch=T !numEQ 145433
new line.CTR60108 bus1=BMT123091231.2,bus2=BMT157993997.2,Phases=1,LineCode=tieSwitch1,Length=0.001,Units=km,switch=T !numEQ 129869
new line.CTR60290 bus1=BMT164560673.1.2.3,bus2=BMT164560674.1.2.3,Phases=3,LineCode=tieSwitch,Length=0.001,Units=km,switch=T !numEQ 129647
new line.CTR8182 bus1=BMT123091112.2,bus2=BMT123091154.2,Phases=1,LineCode=tieSwitch1,Length=0.001,Units=km,switch=T !numEQ 145841
new line.CTR844306 bus1=BMT148290528.2,bus2=BMT161754433.2,Phases=1,LineCode=tieSwitch1,Length=0.001,Units=km,switch=T !numEQ 312786
new line.CTR845273 bus1=BMT148511266.3,bus2=BMT148511271.3,Phases=1,LineCode=tieSwitch1,Length=0.001,Units=km,switch=T !numEQ 295391
new line.CTR845606 bus1=BMT148586210.3,bus2=BMT148586213.3,Phases=1,LineCode=tieSwitch1,Length=0.001,Units=km,switch=T !numEQ 310206
new line.CTR852804 bus1=BMT150677445.1.2.3,bus2=BMT150677446.1.2.3,Phases=3,LineCode=tieSwitch,Length=0.001,Units=km,switch=T !numEQ 312851
new line.CTR853129 bus1=BMT152311958.2,bus2=BMT160320316.2,Phases=1,LineCode=tieSwitch1,Length=0.001,Units=km,switch=T !numEQ 308828
new line.CTR866585 bus1=BMT154707243.2,bus2=BMT155617789.2,Phases=1,LineCode=tieSwitch1,Length=0.001,Units=km,switch=T !numEQ 156244
new line.CTR867425 bus1=BMT154923330.1,bus2=BMT154923338.1,Phases=1,LineCode=tieSwitch1,Length=0.001,Units=km,switch=T !numEQ 243563
new line.CTR878172 bus1=BMT158290296.3,bus2=BMT158290398.3,Phases=1,LineCode=tieSwitch1,Length=0.001,Units=km,switch=T !numEQ 245827
new line.CTR878389 bus1=BMT158365021.1.2.3,bus2=BMT161042798.1.2.3,Phases=3,LineCode=tieSwitch,Length=0.001,Units=km,switch=T !numEQ 200420
new line.CTR87898 bus1=BMT123083265.3,bus2=BMT154626995.3,Phases=1,LineCode=tieSwitch1,Length=0.001,Units=km,switch=T !numEQ 111082
new line.CTR885127 bus1=BMT161028749.3,bus2=BMT161029655.3,Phases=1,LineCode=tieSwitch1,Length=0.001,Units=km,switch=T !numEQ 248712
new line.CTR885183 bus1=BMT161042819.3,bus2=BMT161042820.3,Phases=1,LineCode=tieSwitch1,Length=0.001,Units=km,switch=T !numEQ 248865
new line.CTR88570 bus1=BMT123079772.1.2.3,bus2=BMT172618747.1.2.3,Phases=3,LineCode=tieSwitch,Length=0.001,Units=km,switch=T !numEQ 110972
new line.CTR885761 bus1=BMT164146904.1.2.3,bus2=BMT161280146.1.2.3,Phases=3,LineCode=tieSwitch,Length=0.001,Units=km,switch=T !numEQ 249075
new line.CTR885802 bus1=BMT161367681.1.2.3,bus2=BMT164595036.1.2.3,Phases=3,LineCode=tieSwitch,Length=0.001,Units=km,switch=T !numEQ 374380
new line.CTR885803 bus1=BMT161303704.1.2.3,bus2=BMT164595067.1.2.3,Phases=3,LineCode=tieSwitch,Length=0.001,Units=km,switch=T !numEQ 374384
new line.CTR885812 bus1=BMT162690574.1.2.3,bus2=BMT164146912.1.2.3,Phases=3,LineCode=tieSwitch,Length=0.001,Units=km,switch=T !numEQ 245736
new line.CTR893696 bus1=BMT164471664.1.2.3,bus2=BMT164560671.1.2.3,Phases=3,LineCode=tieSwitch,Length=0.001,Units=km,switch=T !numEQ 385227
new line.CTR912065 bus1=BMT170781930.3,bus2=BMT170781979.3,Phases=1,LineCode=tieSwitch1,Length=0.001,Units=km,switch=T !numEQ 271835
new line.CTR917820 bus1=BMT172617092.1.2.3,bus2=BMT172618985.1.2.3,Phases=3,LineCode=tieSwitch,Length=0.001,Units=km,switch=T !numEQ 321639
new line.CTRR10219 bus1=BMT123091322.3,bus2=BMT169956413.3,Phases=1,LineCode=tieSwitch1,Length=0.001,Units=km,switch=T !numEQ 204285
new Recloser.R10219 monitoredobj='line.CTRR10219' monitoredterm=1,numfast=1,phasedelayed='VERY_INV',grounddelayed='VERY_INV',phasetrip=280,TDPhDelayed=1,GroundTrip=45,TDGrDelayed=14,shots=1,recloseintervals=(10, 20, 20)
new line.CTRR33958 bus1=BMT154322536.1.2.3,bus2=BMT156219096.1.2.3,Phases=3,LineCode=tieSwitch,Length=0.001,Units=km,switch=T !numEQ 240803
new Recloser.R33958 monitoredobj='line.CTRR33958' monitoredterm=1,numfast=1,phasedelayed='VERY_INV',grounddelayed='VERY_INV',phasetrip=280,TDPhDelayed=1,GroundTrip=45,TDGrDelayed=14,shots=1,recloseintervals=(10, 20, 20)
new line.CTR889535 bus1=BMT162868193.3,bus2=BMT165896441.3,Phases=1,LineCode=tieSwitch1,Length=0.001,Units=km,switch=T !numEQ 244460
new line.CTR8980 bus1=BMT160342220.3,bus2=BMT169165081.3,Phases=1,LineCode=tieSwitch1,Length=0.001,Units=km,switch=T !numEQ 26464
new line.CTR901939 bus1=BMT167278973.1,bus2=BMT167278976.1,Phases=1,LineCode=tieSwitch1,Length=0.001,Units=km,switch=T !numEQ 213454
new line.CTR901940 bus1=BMT167279002.1,bus2=BMT167279004.1,Phases=1,LineCode=tieSwitch1,Length=0.001,Units=km,switch=T !numEQ 213453
new line.CTR902984 bus1=BMT167603426.1,bus2=BMT167605361.1,Phases=1,LineCode=tieSwitch1,Length=0.001,Units=km,switch=T !numEQ 247382
new line.CTR902996 bus1=BMT167605362.1,bus2=BMT167605895.1,Phases=1,LineCode=tieSwitch1,Length=0.001,Units=km,switch=T !numEQ 247383
new line.CTR90803 bus1=BMT123091665.3,bus2=BMT171872057.3,Phases=1,LineCode=tieSwitch1,Length=0.001,Units=km,switch=T !numEQ 110275
new line.CTR912929 bus1=BMT171104648.2,bus2=BMT171104650.2,Phases=1,LineCode=tieSwitch1,Length=0.001,Units=km,switch=T !numEQ 275473
new line.CTR9750 bus1=BMT123087633.2,bus2=BMT123087647.2,Phases=1,LineCode=tieSwitch1,Length=0.001,Units=km,switch=T !numEQ 158352
new line.CTRR22511 bus1=BMT141855116.1.2.3,bus2=BMT141855123.1.2.3,Phases=3,LineCode=tieSwitch,Length=0.001,Units=km,switch=T !numEQ 308947
new Recloser.R22511 monitoredobj='line.CTRR22511' monitoredterm=1,numfast=1,phasedelayed='VERY_INV',grounddelayed='VERY_INV',phasetrip=280,TDPhDelayed=1,GroundTrip=45,TDGrDelayed=14,shots=1,recloseintervals=(10, 20, 20)
new line.CTRR38303 bus1=BMT164472398.1.2.3,bus2=BMT164473142.1.2.3,Phases=3,LineCode=tieSwitch,Length=0.001,Units=km,switch=T !numEQ 265098
new Recloser.R38303 monitoredobj='line.CTRR38303' monitoredterm=1,numfast=1,phasedelayed='VERY_INV',grounddelayed='VERY_INV',phasetrip=280,TDPhDelayed=1,GroundTrip=45,TDGrDelayed=14,shots=1,recloseintervals=(10, 20, 20)
new line.CTRR38618 bus1=BMT164879913.2,bus2=BMT164879914.2,Phases=1,LineCode=tieSwitch1,Length=0.001,Units=km,switch=T !numEQ 263769
new Recloser.R38618 monitoredobj='line.CTRR38618' monitoredterm=1,numfast=1,phasedelayed='VERY_INV',grounddelayed='VERY_INV',phasetrip=280,TDPhDelayed=1,GroundTrip=45,TDGrDelayed=14,shots=1,recloseintervals=(10, 20, 20)
new line.CTRR4297 bus1=BMT123083888.1.2.3,bus2=BMT159346616.1.2.3,Phases=3,LineCode=tieSwitch,Length=0.001,Units=km,switch=T !numEQ 121036
new Recloser.R4297 monitoredobj='line.CTRR4297' monitoredterm=1,numfast=1,phasedelayed='VERY_INV',grounddelayed='VERY_INV',phasetrip=280,TDPhDelayed=1,GroundTrip=45,TDGrDelayed=14,shots=1,recloseintervals=(10, 20, 20)
new line.CTRR43214 bus1=BMT172922920.1.2.3,bus2=BMT172915261.1.2.3,Phases=3,LineCode=tieSwitch,Length=0.001,Units=km,switch=T !numEQ 321395
new Recloser.R43214 monitoredobj='line.CTRR43214' monitoredterm=1,numfast=1,phasedelayed='VERY_INV',grounddelayed='VERY_INV',phasetrip=280,TDPhDelayed=1,GroundTrip=45,TDGrDelayed=14,shots=1,recloseintervals=(10, 20, 20)
new line.CTRR7846 bus1=BMT123083132.3,bus2=BMT123083139.3,Phases=1,LineCode=tieSwitch1,Length=0.001,Units=km,switch=T !numEQ 204242
new Recloser.R7846 monitoredobj='line.CTRR7846' monitoredterm=1,numfast=1,phasedelayed='VERY_INV',grounddelayed='VERY_INV',phasetrip=280,TDPhDelayed=1,GroundTrip=45,TDGrDelayed=14,shots=1,recloseintervals=(10, 20, 20)
new line.CTR90775 bus1=BMT123091679.3,bus2=BMT171873683.3,Phases=1,LineCode=tieSwitch1,Length=0.001,Units=km,switch=T !numEQ 110274
