2024_89_CemigReconfigurationCases/1_AlimsCemig/MCLD203/MCLD203Transformadores.dss
new transformer.1005836 Phases=1,Windings=3,Buses=[BMT168030585.3 BBT84467877.1.0 BBT84467877.0.2],Conns=[wye wye wye],kvs=[7.967 0.12 0.12],kvas=[5.000000000 5.000000000 5.000000000],Taps=[1,1.000000000,1.000000000],%loadloss=1.900000000,%noloadloss=0.600000000
new transformer.1046674 Phases=1,Windings=3,Buses=[BMT165898232.2 BBT112321906.1.0 BBT112321906.0.2],Conns=[wye wye wye],kvs=[7.967 0.12 0.12],kvas=[15.000000000 15.000000000 15.000000000],Taps=[1,1.000000000,1.000000000],%loadloss=1.600000000,%noloadloss=0.400000000
new transformer.1047409 Phases=1,Windings=3,Buses=[BMT123082516.3 BBT113060868.1.0 BBT113060868.0.2],Conns=[wye wye wye],kvs=[7.967 0.12 0.12],kvas=[35.000000000 35.000000000 35.000000000],Taps=[1,1.000000000,1.000000000],%loadloss=1.293000000,%noloadloss=0.342857000
new transformer.1066421 Phases=1,Windings=3,Buses=[BMT160261434.1 BBT131691557.1.0 BBT131691557.0.2],Conns=[wye wye wye],kvs=[7.967 0.12 0.12],kvas=[15.000000000 15.000000000 15.000000000],Taps=[1,1.000000000,1.000000000],%loadloss=1.600000000,%noloadloss=0.400000000
new transformer.1067905 Phases=1,Windings=3,Buses=[BMT132435034.3 BBT132435041.1.0 BBT132435041.0.2],Conns=[wye wye wye],kvs=[7.967 0.12 0.12],kvas=[5.000000000 5.000000000 5.000000000],Taps=[1,1.000000000,1.000000000],%loadloss=1.900000000,%noloadloss=0.600000000
new transformer.1082094 Phases=1,Windings=3,Buses=[BMT136890261.3 BBT136890275.1.0 BBT136890275.0.2],Conns=[wye wye wye],kvs=[7.967 0.12 0.12],kvas=[5.000000000 5.000000000 5.000000000],Taps=[1,1.000000000,1.000000000],%loadloss=1.900000000,%noloadloss=0.600000000
new transformer.1095359 Phases=1,Windings=3,Buses=[BMT164585635.3 BBT140338902.1.0 BBT140338902.0.2],Conns=[wye wye wye],kvs=[7.967 0.12 0.12],kvas=[5.000000000 5.000000000 5.000000000],Taps=[1,1.000000000,1.000000000],%loadloss=1.900000000,%noloadloss=0.600000000
new transformer.1108470 Phases=3,Windings=2,Buses=[BMT164556295.1.2.3 BBT143886845.1.2.3.0],Conns=[delta wye],kvs=[13.8 0.22],kvas=[45.000000000 45.000000000],Taps=[1,1.000000000],%loadloss=1.522000000,%noloadloss=0.377777000
new transformer.1108568 Phases=3,Windings=2,Buses=[BMT171679376.1.2.3 BBT143915790.1.2.3.0],Conns=[delta wye],kvs=[13.8 0.22],kvas=[45.000000000 45.000000000],Taps=[1,1.000000000],%loadloss=1.522000000,%noloadloss=0.377777000
new transformer.1108582 Phases=3,Windings=2,Buses=[BMT171679385.1.2.3 BBT143916182.1.2.3.0],Conns=[delta wye],kvs=[13.8 0.22],kvas=[45.000000000 45.000000000],Taps=[1,1.000000000],%loadloss=1.522000000,%noloadloss=0.377777000
new transformer.1108596 Phases=3,Windings=2,Buses=[BMT171679386.1.2.3 BBT143917393.1.2.3.0],Conns=[delta wye],kvs=[13.8 0.22],kvas=[45.000000000 45.000000000],Taps=[1,1.000000000],%loadloss=1.522000000,%noloadloss=0.377777000
new transformer.1108617 Phases=3,Windings=2,Buses=[BMT171679384.1.2.3 BBT143917855.1.2.3.0],Conns=[delta wye],kvs=[13.8 0.22],kvas=[45.000000000 45.000000000],Taps=[1,1.000000000],%loadloss=1.522000000,%noloadloss=0.377777000
new transformer.1108631 Phases=3,Windings=2,Buses=[BMT171679389.1.2.3 BBT143918240.1.2.3.0],Conns=[delta wye],kvs=[13.8 0.22],kvas=[45.000000000 45.000000000],Taps=[1,1.000000000],%loadloss=1.522000000,%noloadloss=0.377777000
new transformer.1108638 Phases=3,Windings=2,Buses=[BMT171679390.1.2.3 BBT143918506.1.2.3.0],Conns=[delta wye],kvs=[13.8 0.22],kvas=[45.000000000 45.000000000],Taps=[1,1.000000000],%loadloss=1.522000000,%noloadloss=0.377777000
new transformer.1108645 Phases=3,Windings=2,Buses=[BMT171679383.1.2.3 BBT143919969.1.2.3.0],Conns=[delta wye],kvs=[13.8 0.22],kvas=[45.000000000 45.000000000],Taps=[1,1.000000000],%loadloss=1.522000000,%noloadloss=0.377777000
new transformer.1108659 Phases=3,Windings=2,Buses=[BMT171679380.1.2.3 BBT143923070.1.2.3.0],Conns=[delta wye],kvs=[13.8 0.22],kvas=[45.000000000 45.000000000],Taps=[1,1.000000000],%loadloss=1.522000000,%noloadloss=0.377777000
new transformer.1108694 Phases=3,Windings=2,Buses=[BMT171679378.1.2.3 BBT143932681.1.2.3.0],Conns=[delta wye],kvs=[13.8 0.22],kvas=[45.000000000 45.000000000],Taps=[1,1.000000000],%loadloss=1.522000000,%noloadloss=0.377777000
new transformer.1108736 Phases=1,Windings=3,Buses=[BMT160261438.1 BBT143938897.1.0 BBT143938897.0.2],Conns=[wye wye wye],kvs=[7.967 0.12 0.12],kvas=[15.000000000 15.000000000 15.000000000],Taps=[1,1.000000000,1.000000000],%loadloss=1.600000000,%noloadloss=0.400000000
new transformer.1390488 Phases=1,Windings=3,Buses=[BMT161438036.1 BBT148145720.1.0 BBT148145720.0.2],Conns=[wye wye wye],kvs=[7.967 0.12 0.12],kvas=[10.000000000 10.000000000 10.000000000],Taps=[1,1.000000000,1.000000000],%loadloss=1.800000000,%noloadloss=0.450000000
new transformer.1392354 Phases=1,Windings=3,Buses=[BMT148586218.3 BBT148586028.1.0 BBT148586028.0.2],Conns=[wye wye wye],kvs=[7.967 0.12 0.12],kvas=[15.000000000 15.000000000 15.000000000],Taps=[1,1.000000000,1.000000000],%loadloss=1.600000000,%noloadloss=0.400000000
new transformer.1392455 Phases=1,Windings=3,Buses=[BMT160261440.1 BBT148612260.1.0 BBT148612260.0.2],Conns=[wye wye wye],kvs=[7.967 0.12 0.12],kvas=[15.000000000 15.000000000 15.000000000],Taps=[1,1.000000000,1.000000000],%loadloss=1.600000000,%noloadloss=0.400000000
new transformer.1395229 Phases=3,Windings=2,Buses=[BMT162694045.1.2.3 BBT149258141.1.2.3.0],Conns=[delta wye],kvs=[13.8 0.22],kvas=[45.000000000 45.000000000],Taps=[1,1.000000000],%loadloss=1.522000000,%noloadloss=0.377777000
new transformer.1395239 Phases=3,Windings=2,Buses=[BMT162694048.1.2.3 BBT149259707.1.2.3.0],Conns=[delta wye],kvs=[13.8 0.22],kvas=[45.000000000 45.000000000],Taps=[1,1.000000000],%loadloss=1.522000000,%noloadloss=0.377777000
new transformer.1395244 Phases=3,Windings=2,Buses=[BMT162694050.1.2.3 BBT149260040.1.2.3.0],Conns=[delta wye],kvs=[13.8 0.22],kvas=[45.000000000 45.000000000],Taps=[1,1.000000000],%loadloss=1.522000000,%noloadloss=0.377777000
new transformer.1395245 Phases=3,Windings=2,Buses=[BMT162694052.1.2.3 BBT149260086.1.2.3.0],Conns=[delta wye],kvs=[13.8 0.22],kvas=[45.000000000 45.000000000],Taps=[1,1.000000000],%loadloss=1.522000000,%noloadloss=0.377777000
new transformer.1395246 Phases=3,Windings=2,Buses=[BMT162694051.1.2.3 BBT149260123.1.2.3.0],Conns=[delta wye],kvs=[13.8 0.22],kvas=[45.000000000 45.000000000],Taps=[1,1.000000000],%loadloss=1.522000000,%noloadloss=0.377777000
new transformer.1401377 Phases=1,Windings=3,Buses=[BMT160320319.2 BBT150786816.1.0 BBT150786816.0.2],Conns=[wye wye wye],kvs=[7.967 0.12 0.12],kvas=[35.000000000 35.000000000 35.000000000],Taps=[1,1.000000000,1.000000000],%loadloss=1.293000000,%noloadloss=0.342857000
new transformer.1401378 Phases=1,Windings=3,Buses=[BMT160320321.2 BBT150786858.1.0 BBT150786858.0.2],Conns=[wye wye wye],kvs=[7.967 0.12 0.12],kvas=[35.000000000 35.000000000 35.000000000],Taps=[1,1.000000000,1.000000000],%loadloss=1.293000000,%noloadloss=0.342857000
new transformer.1401381 Phases=1,Windings=3,Buses=[BMT160320323.2 BBT150787277.1.0 BBT150787277.0.2],Conns=[wye wye wye],kvs=[7.967 0.12 0.12],kvas=[35.000000000 35.000000000 35.000000000],Taps=[1,1.000000000,1.000000000],%loadloss=1.293000000,%noloadloss=0.342857000
...