2024_89_CemigReconfigurationCases/1_AlimsCemig/MCLD203/MCLD203SegmentosBT.dss
new line.10087573 bus1=BBT147519740.1.2.3.0,bus2=BBT147525354.1.2.3.0,Phases=3,Linecode=BT803_BT803_4_3_4,Length=0.048177000,Units=km
new line.10087580 bus1=BBT147519740.1.2.3.0,bus2=BBT147525956.1.2.3.0,Phases=3,Linecode=BT803_BT803_4_3_4,Length=0.053087000,Units=km
new line.10087587 bus1=BBT147525956.1.2.3.0,bus2=BBT147525963.1.2.3.0,Phases=3,Linecode=BT803_BT803_4_3_4,Length=0.058065000,Units=km
new line.1476075 bus1=BBT1592583.1.2.0,bus2=BBT1592590.1.2.0,Phases=2,Linecode=BT508_BT508_7_2_1,Length=0.000501000,Units=km
new line.1476082 bus1=BBT1592590.1.2.0,bus2=BBT1592597.1.2.0,Phases=2,Linecode=BT807_BT807_4_2_3,Length=0.023201000,Units=km
new line.1476089 bus1=BBT1592590.1.2.0,bus2=BBT1592625.1.2.0,Phases=2,Linecode=BT807_BT807_4_2_3,Length=0.024090000,Units=km
new line.1476096 bus1=BBT1592597.1.2.0,bus2=BBT1592604.1.2.0,Phases=2,Linecode=BT807_BT807_4_2_3,Length=0.043197000,Units=km
new line.1476103 bus1=BBT1592597.1.2.0,bus2=BBT1592618.1.2.0,Phases=2,Linecode=BT801_BT801_4_2_3,Length=0.050500000,Units=km
new line.1476110 bus1=BBT1592604.1.2.0,bus2=BBT1592611.1.2.0,Phases=2,Linecode=BT802_BT802_4_2_3,Length=0.045288000,Units=km
new line.1476117 bus1=BBT1592625.1.2.0,bus2=BBT1592632.1.2.0,Phases=2,Linecode=BT807_BT807_4_2_3,Length=0.041059000,Units=km
new line.1476124 bus1=BBT1592625.1.2.0,bus2=BBT1592667.1.2.0,Phases=2,Linecode=BT801_BT801_4_2_3,Length=0.046283000,Units=km
new line.1476131 bus1=BBT1592632.1.2.0,bus2=BBT1592639.1.2.0,Phases=2,Linecode=BT807_BT807_4_2_3,Length=0.036369000,Units=km
new line.1476138 bus1=BBT1592632.1.2.0,bus2=BBT1592646.1.2.0,Phases=2,Linecode=BT106_BT106_7_2_1,Length=0.040458000,Units=km
new line.1476145 bus1=BBT1592639.1.2.0,bus2=BBT1592660.1.2.0,Phases=2,Linecode=BT807_BT807_4_2_3,Length=0.039456000,Units=km
new line.1476152 bus1=BBT1592646.1.2.0,bus2=BBT1592653.1.2.0,Phases=2,Linecode=BT106_BT106_7_2_1,Length=0.037865000,Units=km
new line.1476159 bus1=BBT1593374.1.2.0,bus2=BBT1593381.1.2.0,Phases=2,Linecode=BT107_BT106_7_2_1,Length=0.019215000,Units=km
new line.1476292 bus1=BBT1592758.1.2.3.0,bus2=BBT1592765.1.2.3.0,Phases=3,Linecode=BT508_BT508_7_3_1,Length=0.000501000,Units=km
new line.1476299 bus1=BBT1592765.1.2.3.0,bus2=BBT1592772.1.2.3.0,Phases=3,Linecode=BT108_BT107_7_3_1,Length=0.027007000,Units=km
new line.1476306 bus1=BBT1592765.1.2.3.0,bus2=BBT1592800.1.2.3.0,Phases=3,Linecode=BT108_BT107_7_3_1,Length=0.023416000,Units=km
new line.1476313 bus1=BBT1592772.1.2.3.0,bus2=BBT1592779.1.2.3.0,Phases=3,Linecode=BT108_BT107_7_3_1,Length=0.042058000,Units=km
new line.1476320 bus1=BBT1592779.1.2.3.0,bus2=BBT1592786.1.2.3.0,Phases=3,Linecode=BT108_BT107_7_3_1,Length=0.036023000,Units=km
new line.1476327 bus1=BBT1592779.1.2.3.0,bus2=BBT6293678.1.2.3.0,Phases=3,Linecode=BT803_BT803_4_3_4,Length=0.007073000,Units=km
new line.1476334 bus1=BBT1592800.1.2.3.0,bus2=BBT1592807.1.2.3.0,Phases=3,Linecode=BT108_BT107_7_3_1,Length=0.035023000,Units=km
new line.1476341 bus1=BBT1592800.1.2.0,bus2=BBT3396994.1.2.0,Phases=2,Linecode=BT807_BT807_4_2_3,Length=0.048427000,Units=km
new line.1476355 bus1=BBT1592814.1.2.3.0,bus2=BBT2236429.1.2.3.0,Phases=3,Linecode=BT803_BT803_4_3_4,Length=0.039010000,Units=km
new line.1476362 bus1=BBT1592821.1.2.3.0,bus2=BBT2236499.1.2.3.0,Phases=3,Linecode=BT803_BT803_4_3_4,Length=0.040010000,Units=km
new line.1476369 bus1=BBT1592828.1.2.3.0,bus2=BBT1592814.1.2.3.0,Phases=3,Linecode=BT803_BT803_4_3_4,Length=0.037009000,Units=km
new line.1476376 bus1=BBT1592828.1.2.3.0,bus2=BBT1592821.1.2.3.0,Phases=3,Linecode=BT803_BT803_4_3_4,Length=0.039023000,Units=km
new line.1476383 bus1=BBT2236422.1.2.3.0,bus2=BBT1592828.1.2.3.0,Phases=3,Linecode=BT509_BT509_7_3_1,Length=0.000501000,Units=km
new line.1476649 bus1=BBT1593059.1.2.0,bus2=BBT1593066.1.2.0,Phases=2,Linecode=BT508_BT508_7_2_1,Length=0.000501000,Units=km
new line.1476656 bus1=BBT1593066.1.2.0,bus2=BBT1593073.1.2.0,Phases=2,Linecode=BT108_BT107_7_2_1,Length=0.029214000,Units=km
new line.1476663 bus1=BBT1593066.1.2.0,bus2=BBT1593101.1.2.0,Phases=2,Linecode=BT108_BT107_7_2_1,Length=0.035393000,Units=km
new line.1476670 bus1=BBT1593073.1.2.0,bus2=BBT1593094.1.2.0,Phases=2,Linecode=BT106_BT106_7_2_1,Length=0.011049000,Units=km
new line.1476677 bus1=BBT1593073.1.2.0,bus2=BBT1593080.1.2.0,Phases=2,Linecode=BT108_BT107_7_2_1,Length=0.006405000,Units=km
new line.1476684 bus1=BBT1593073.1.2.0,bus2=BBT1593122.1.2.0,Phases=2,Linecode=BT106_BT106_7_2_1,Length=0.031024000,Units=km
new line.1476691 bus1=BBT1593080.1.2.0,bus2=BBT1593087.1.2.0,Phases=2,Linecode=BT108_BT107_7_2_1,Length=0.046702000,Units=km
new line.1476698 bus1=BBT1593087.1.2.0,bus2=BBT1593150.1.2.0,Phases=2,Linecode=BT107_BT106_7_2_1,Length=0.042461000,Units=km
new line.1476705 bus1=BBT1593101.1.2.0,bus2=BBT1593108.1.2.0,Phases=2,Linecode=BT106_BT106_7_2_1,Length=0.060422000,Units=km
new line.1476712 bus1=BBT1593101.1.2.0,bus2=BBT1593143.1.2.0,Phases=2,Linecode=BT108_BT107_7_2_1,Length=0.035814000,Units=km
...